

        *** GPGPU-Sim Simulator Version 4.0.0  [build gpgpu-sim_git-commit-90ec3399763d7c8512cfe7dc193473086c38ca38_modified_3.0] ***


GPGPU-Sim PTX: simulation mode 0 (can change with PTX_SIM_MODE_FUNC environment variable:
               1=functional simulation only, 0=detailed performance simulator)
GPGPU-Sim PTX: overriding embedded ptx with ptx file (PTX_SIM_USE_PTX_FILE is set)
GPGPU-Sim: Configuration options:

-save_embedded_ptx                      0 # saves ptx files embedded in binary as <n>.ptx
-keep                                   0 # keep intermediate files created by GPGPU-Sim when interfacing with external programs
-gpgpu_ptx_save_converted_ptxplus                    0 # Saved converted ptxplus to a file
-gpgpu_occupancy_sm_number                   62 # The SM number to pass to ptxas when getting register usage for computing GPU occupancy. This parameter is required in the config.
-ptx_opcode_latency_int      4,13,4,5,145,32 # Opcode latencies for integers <ADD,MAX,MUL,MAD,DIV,SHFL>Default 1,1,19,25,145,32
-ptx_opcode_latency_fp          4,13,4,4,39 # Opcode latencies for single precision floating points <ADD,MAX,MUL,MAD,DIV>Default 1,1,1,1,30
-ptx_opcode_latency_dp         8,19,8,8,330 # Opcode latencies for double precision floating points <ADD,MAX,MUL,MAD,DIV>Default 8,8,8,8,335
-ptx_opcode_latency_sfu                   20 # Opcode latencies for SFU instructionsDefault 8
-ptx_opcode_latency_tesnor                   64 # Opcode latencies for Tensor instructionsDefault 64
-ptx_opcode_initiation_int          1,1,1,1,4,4 # Opcode initiation intervals for integers <ADD,MAX,MUL,MAD,DIV,SHFL>Default 1,1,4,4,32,4
-ptx_opcode_initiation_fp            1,2,1,1,4 # Opcode initiation intervals for single precision floating points <ADD,MAX,MUL,MAD,DIV>Default 1,1,1,1,5
-ptx_opcode_initiation_dp          8,8,8,8,130 # Opcode initiation intervals for double precision floating points <ADD,MAX,MUL,MAD,DIV>Default 8,8,8,8,130
-ptx_opcode_initiation_sfu                    4 # Opcode initiation intervals for sfu instructionsDefault 8
-ptx_opcode_initiation_tensor                   64 # Opcode initiation intervals for tensor instructionsDefault 64
-cdp_latency         7200,8000,100,12000,1600 # CDP API latency <cudaStreamCreateWithFlags, cudaGetParameterBufferV2_init_perWarp, cudaGetParameterBufferV2_perKernel, cudaLaunchDeviceV2_init_perWarp, cudaLaunchDevicV2_perKernel>Default 7200,8000,100,12000,1600
-network_mode                           1 # Interconnection network mode
-inter_config_file   config_pascal_islip.icnt # Interconnection network config file
-icnt_in_buffer_limit                   64 # in_buffer_limit
-icnt_out_buffer_limit                   64 # out_buffer_limit
-icnt_subnets                           2 # subnets
-icnt_arbiter_algo                      1 # arbiter_algo
-icnt_verbose                           0 # inct_verbose
-icnt_grant_cycles                      1 # grant_cycles
-gpgpu_ptx_use_cuobjdump                    1 # Use cuobjdump to extract ptx and sass from binaries
-gpgpu_experimental_lib_support                    0 # Try to extract code from cuda libraries [Broken because of unknown cudaGetExportTable]
-checkpoint_option                      0 #  checkpointing flag (0 = no checkpoint)
-checkpoint_kernel                      1 #  checkpointing during execution of which kernel (1- 1st kernel)
-checkpoint_CTA                         0 #  checkpointing after # of CTA (< less than total CTA)
-resume_option                          0 #  resume flag (0 = no resume)
-resume_kernel                          0 #  Resume from which kernel (1= 1st kernel)
-resume_CTA                             0 #  resume from which CTA 
-checkpoint_CTA_t                       0 #  resume from which CTA 
-checkpoint_insn_Y                      0 #  resume from which CTA 
-gpgpu_ptx_convert_to_ptxplus                    0 # Convert SASS (native ISA) to ptxplus and run ptxplus
-gpgpu_ptx_force_max_capability                   61 # Force maximum compute capability
-gpgpu_ptx_inst_debug_to_file                    0 # Dump executed instructions' debug information to file
-gpgpu_ptx_inst_debug_file       inst_debug.txt # Executed instructions' debug output file
-gpgpu_ptx_inst_debug_thread_uid                    1 # Thread UID for executed instructions' debug output
-gpgpu_simd_model                       1 # 1 = post-dominator
-gpgpu_shader_core_pipeline              2048:32 # shader core pipeline config, i.e., {<nthread>:<warpsize>}
-gpgpu_tex_cache:l1  N:16:128:24,L:R:m:N:L,T:128:4,128:2 # per-shader L1 texture cache  (READ-ONLY) config  {<nsets>:<bsize>:<assoc>,<rep>:<wr>:<alloc>:<wr_alloc>,<mshr>:<N>:<merge>,<mq>:<rf>}
-gpgpu_const_cache:l1 N:128:64:2,L:R:f:N:L,S:2:64,4 # per-shader L1 constant memory cache  (READ-ONLY) config  {<nsets>:<bsize>:<assoc>,<rep>:<wr>:<alloc>:<wr_alloc>,<mshr>:<N>:<merge>,<mq>} 
-gpgpu_cache:il1     N:8:128:4,L:R:f:N:L,S:2:48,4 # shader L1 instruction cache config  {<nsets>:<bsize>:<assoc>,<rep>:<wr>:<alloc>:<wr_alloc>,<mshr>:<N>:<merge>,<mq>} 
-gpgpu_cache:dl1     S:4:128:96,L:L:s:N:L,A:256:8,16:0,32 # per-shader L1 data cache config  {<nsets>:<bsize>:<assoc>,<rep>:<wr>:<alloc>:<wr_alloc>,<mshr>:<N>:<merge>,<mq> | none}
-gpgpu_l1_banks                         2 # The number of L1 cache banks
-gpgpu_l1_banks_byte_interleaving                   32 # l1 banks byte interleaving granularity
-gpgpu_l1_banks_hashing_function                    0 # l1 banks hashing function
-gpgpu_l1_latency                      82 # L1 Hit Latency
-gpgpu_smem_latency                    24 # smem Latency
-gpgpu_cache:dl1PrefL1 S:4:128:96,L:L:s:N:L,A:256:8,16:0,32 # per-shader L1 data cache config  {<nsets>:<bsize>:<assoc>,<rep>:<wr>:<alloc>:<wr_alloc>,<mshr>:<N>:<merge>,<mq> | none}
-gpgpu_cache:dl1PrefShared S:4:128:96,L:L:s:N:L,A:256:8,16:0,32 # per-shader L1 data cache config  {<nsets>:<bsize>:<assoc>,<rep>:<wr>:<alloc>:<wr_alloc>,<mshr>:<N>:<merge>,<mq> | none}
-gpgpu_gmem_skip_L1D                    1 # global memory access skip L1D cache (implements -Xptxas -dlcm=cg, default=no skip)
-gpgpu_perfect_mem                      0 # enable perfect memory mode (no cache miss)
-n_regfile_gating_group                    4 # group of lanes that should be read/written together)
-gpgpu_clock_gated_reg_file                    0 # enable clock gated reg file for power calculations
-gpgpu_clock_gated_lanes                    0 # enable clock gated lanes for power calculations
-gpgpu_shader_registers                65536 # Number of registers per shader core. Limits number of concurrent CTAs. (default 8192)
-gpgpu_registers_per_block                 8192 # Maximum number of registers per CTA. (default 8192)
-gpgpu_ignore_resources_limitation                    1 # gpgpu_ignore_resources_limitation (default 0)
-gpgpu_shader_cta                      32 # Maximum number of concurrent CTAs in shader (default 8)
-gpgpu_num_cta_barriers                   16 # Maximum number of named barriers per CTA (default 16)
-gpgpu_n_clusters                      28 # number of processing clusters
-gpgpu_n_cores_per_cluster                    1 # number of simd cores per cluster
-gpgpu_n_cluster_ejection_buffer_size                   32 # number of packets in ejection buffer
-gpgpu_n_ldst_response_buffer_size                    2 # number of response packets in ld/st unit ejection buffer
-gpgpu_shmem_per_block                49152 # Size of shared memory per thread block or CTA (default 48kB)
-gpgpu_shmem_size                   98304 # Size of shared memory per shader core (default 16kB)
-gpgpu_adaptive_cache_config                    0 # adaptive_cache_config
-gpgpu_shmem_sizeDefault                98304 # Size of shared memory per shader core (default 16kB)
-gpgpu_shmem_size_PrefL1                98304 # Size of shared memory per shader core (default 16kB)
-gpgpu_shmem_size_PrefShared                98304 # Size of shared memory per shader core (default 16kB)
-gpgpu_shmem_num_banks                   32 # Number of banks in the shared memory in each shader core (default 16)
-gpgpu_shmem_limited_broadcast                    0 # Limit shared memory to do one broadcast per cycle (default on)
-gpgpu_shmem_warp_parts                    1 # Number of portions a warp is divided into for shared memory bank conflict check 
-gpgpu_mem_unit_ports                    1 # The number of memory transactions allowed per core cycle
-gpgpu_shmem_warp_parts                    1 # Number of portions a warp is divided into for shared memory bank conflict check 
-gpgpu_warpdistro_shader                   -1 # Specify which shader core to collect the warp size distribution from
-gpgpu_warp_issue_shader                    0 # Specify which shader core to collect the warp issue distribution from
-gpgpu_local_mem_map                    1 # Mapping from local memory space address to simulated GPU physical address space (default = enabled)
-gpgpu_num_reg_banks                   16 # Number of register banks (default = 8)
-gpgpu_reg_bank_use_warp_id                    0 # Use warp ID in mapping registers to banks (default = off)
-gpgpu_sub_core_model                    1 # Sub Core Volta/Pascal model (default = off)
-gpgpu_enable_specialized_operand_collector                    0 # enable_specialized_operand_collector
-gpgpu_operand_collector_num_units_sp                    4 # number of collector units (default = 4)
-gpgpu_operand_collector_num_units_dp                    0 # number of collector units (default = 0)
-gpgpu_operand_collector_num_units_sfu                    4 # number of collector units (default = 4)
-gpgpu_operand_collector_num_units_int                    0 # number of collector units (default = 0)
-gpgpu_operand_collector_num_units_tensor_core                    4 # number of collector units (default = 4)
-gpgpu_operand_collector_num_units_mem                    2 # number of collector units (default = 2)
-gpgpu_operand_collector_num_units_gen                    8 # number of collector units (default = 0)
-gpgpu_operand_collector_num_in_ports_sp                    1 # number of collector unit in ports (default = 1)
-gpgpu_operand_collector_num_in_ports_dp                    0 # number of collector unit in ports (default = 0)
-gpgpu_operand_collector_num_in_ports_sfu                    1 # number of collector unit in ports (default = 1)
-gpgpu_operand_collector_num_in_ports_int                    0 # number of collector unit in ports (default = 0)
-gpgpu_operand_collector_num_in_ports_tensor_core                    1 # number of collector unit in ports (default = 1)
-gpgpu_operand_collector_num_in_ports_mem                    1 # number of collector unit in ports (default = 1)
-gpgpu_operand_collector_num_in_ports_gen                    8 # number of collector unit in ports (default = 0)
-gpgpu_operand_collector_num_out_ports_sp                    1 # number of collector unit in ports (default = 1)
-gpgpu_operand_collector_num_out_ports_dp                    0 # number of collector unit in ports (default = 0)
-gpgpu_operand_collector_num_out_ports_sfu                    1 # number of collector unit in ports (default = 1)
-gpgpu_operand_collector_num_out_ports_int                    0 # number of collector unit in ports (default = 0)
-gpgpu_operand_collector_num_out_ports_tensor_core                    1 # number of collector unit in ports (default = 1)
-gpgpu_operand_collector_num_out_ports_mem                    1 # number of collector unit in ports (default = 1)
-gpgpu_operand_collector_num_out_ports_gen                    8 # number of collector unit in ports (default = 0)
-gpgpu_coalesce_arch                   61 # Coalescing arch (GT200 = 13, Fermi = 20)
-gpgpu_num_sched_per_core                    4 # Number of warp schedulers per core
-gpgpu_max_insn_issue_per_warp                    1 # Max number of instructions that can be issued per warp in one cycle by scheduler (either 1 or 2)
-gpgpu_dual_issue_diff_exec_units                    1 # should dual issue use two different execution unit resources (Default = 1)
-gpgpu_simt_core_sim_order                    1 # Select the simulation order of cores in a cluster (0=Fix, 1=Round-Robin)
-gpgpu_pipeline_widths 4,0,0,4,4,4,0,0,4,4,8 # Pipeline widths ID_OC_SP,ID_OC_DP,ID_OC_INT,ID_OC_SFU,ID_OC_MEM,OC_EX_SP,OC_EX_DP,OC_EX_INT,OC_EX_SFU,OC_EX_MEM,EX_WB,ID_OC_TENSOR_CORE,OC_EX_TENSOR_CORE
-gpgpu_tensor_core_avail                    0 # Tensor Core Available (default=0)
-gpgpu_num_sp_units                     4 # Number of SP units (default=1)
-gpgpu_num_dp_units                     0 # Number of DP units (default=0)
-gpgpu_num_int_units                    0 # Number of INT units (default=0)
-gpgpu_num_sfu_units                    4 # Number of SF units (default=1)
-gpgpu_num_tensor_core_units                    0 # Number of tensor_core units (default=1)
-gpgpu_num_mem_units                    1 # Number if ldst units (default=1) WARNING: not hooked up to anything
-gpgpu_scheduler                      lrr # Scheduler configuration: < lrr | gto | two_level_active > If two_level_active:<num_active_warps>:<inner_prioritization>:<outer_prioritization>For complete list of prioritization values see shader.h enum scheduler_prioritization_typeDefault: gto
-gpgpu_concurrent_kernel_sm                    0 # Support concurrent kernels on a SM (default = disabled)
-gpgpu_perfect_inst_const_cache                    0 # perfect inst and const cache mode, so all inst and const hits in the cache(default = disabled)
-gpgpu_inst_fetch_throughput                    8 # the number of fetched intruction per warp each cycle
-gpgpu_reg_file_port_throughput                    2 # the number ports of the register file
-specialized_unit_1         0,4,4,4,4,BRA # specialized unit config {<enabled>,<num_units>:<latency>:<initiation>,<ID_OC_SPEC>:<OC_EX_SPEC>,<NAME>}
-specialized_unit_2         0,4,4,4,4,BRA # specialized unit config {<enabled>,<num_units>:<latency>:<initiation>,<ID_OC_SPEC>:<OC_EX_SPEC>,<NAME>}
-specialized_unit_3         0,4,4,4,4,BRA # specialized unit config {<enabled>,<num_units>:<latency>:<initiation>,<ID_OC_SPEC>:<OC_EX_SPEC>,<NAME>}
-specialized_unit_4         0,4,4,4,4,BRA # specialized unit config {<enabled>,<num_units>:<latency>:<initiation>,<ID_OC_SPEC>:<OC_EX_SPEC>,<NAME>}
-specialized_unit_5         0,4,4,4,4,BRA # specialized unit config {<enabled>,<num_units>:<latency>:<initiation>,<ID_OC_SPEC>:<OC_EX_SPEC>,<NAME>}
-specialized_unit_6         0,4,4,4,4,BRA # specialized unit config {<enabled>,<num_units>:<latency>:<initiation>,<ID_OC_SPEC>:<OC_EX_SPEC>,<NAME>}
-specialized_unit_7         0,4,4,4,4,BRA # specialized unit config {<enabled>,<num_units>:<latency>:<initiation>,<ID_OC_SPEC>:<OC_EX_SPEC>,<NAME>}
-specialized_unit_8         0,4,4,4,4,BRA # specialized unit config {<enabled>,<num_units>:<latency>:<initiation>,<ID_OC_SPEC>:<OC_EX_SPEC>,<NAME>}
-gpgpu_perf_sim_memcpy                    1 # Fill the L2 cache on memcpy
-gpgpu_simple_dram_model                    0 # simple_dram_model with fixed latency and BW
-gpgpu_dram_scheduler                    1 # 0 = fifo, 1 = FR-FCFS (defaul)
-gpgpu_dram_partition_queues          32:32:32:32 # i2$:$2d:d2$:$2i
-l2_ideal                               0 # Use a ideal L2 cache that always hit
-gpgpu_cache:dl2     S:64:128:16,L:B:m:L:P,A:256:64,16:0,32 # unified banked L2 data cache config  {<nsets>:<bsize>:<assoc>,<rep>:<wr>:<alloc>:<wr_alloc>,<mshr>:<N>:<merge>,<mq>}
-gpgpu_cache:dl2_texture_only                    0 # L2 cache used for texture only
-gpgpu_n_mem                           12 # number of memory modules (e.g. memory controllers) in gpu
-gpgpu_n_sub_partition_per_mchannel                    2 # number of memory subpartition in each memory module
-gpgpu_n_mem_per_ctrlr                    1 # number of memory chips per memory controller
-gpgpu_memlatency_stat                   14 # track and display latency statistics 0x2 enables MC, 0x4 enables queue logs
-gpgpu_frfcfs_dram_sched_queue_size                   64 # 0 = unlimited (default); # entries per chip
-gpgpu_dram_return_queue_size                   64 # 0 = unlimited (default); # entries per chip
-gpgpu_dram_buswidth                    4 # default = 4 bytes (8 bytes per cycle at DDR)
-gpgpu_dram_burst_length                    8 # Burst length of each DRAM request (default = 4 data bus cycle)
-dram_data_command_freq_ratio                    4 # Frequency ratio between DRAM data bus and command bus (default = 2 times, i.e. DDR)
-gpgpu_dram_timing_opt nbk=16:CCD=2:RRD=8:RCD=16:RAS=37:RP=16:RC=52: CL=16:WL=6:CDLR=7:WR=16:nbkgrp=4:CCDL=4:RTPL=3 # DRAM timing parameters = {nbk:tCCD:tRRD:tRCD:tRAS:tRP:tRC:CL:WL:tCDLR:tWR:nbkgrp:tCCDL:tRTPL}
-gpgpu_l2_rop_latency                  120 # ROP queue latency (default 85)
-dram_latency                         100 # DRAM latency (default 30)
-dram_dual_bus_interface                    0 # dual_bus_interface (default = 0) 
-dram_bnk_indexing_policy                    0 # dram_bnk_indexing_policy (0 = normal indexing, 1 = Xoring with the higher bits) (Default = 0)
-dram_bnkgrp_indexing_policy                    1 # dram_bnkgrp_indexing_policy (0 = take higher bits, 1 = take lower bits) (Default = 0)
-dram_seperate_write_queue_enable                    0 # Seperate_Write_Queue_Enable
-dram_write_queue_size             32:28:16 # Write_Queue_Size
-dram_elimnate_rw_turnaround                    0 # elimnate_rw_turnaround i.e set tWTR and tRTW = 0
-icnt_flit_size                        40 # icnt_flit_size
-gpgpu_mem_addr_mapping dramid@8;00000000.00000000.00000000.00000000.0000RRRR.RRRRRRRR.RBBBCCCC.BCCSSSSS # mapping memory address to dram model {dramid@<start bit>;<memory address map>}
-gpgpu_mem_addr_test                    0 # run sweep test to check address mapping for aliased address
-gpgpu_mem_address_mask                    1 # 0 = old addressing mask, 1 = new addressing mask, 2 = new add. mask + flipped bank sel and chip sel bits
-gpgpu_memory_partition_indexing                    4 # 0 = no indexing, 1 = bitwise xoring, 2 = IPoly, 3 = custom indexing
-gpuwattch_xml_file         gpuwattch.xml # GPUWattch XML file
-power_simulation_enabled                    0 # Turn on power simulator (1=On, 0=Off)
-power_per_cycle_dump                    0 # Dump detailed power output each cycle
-power_trace_enabled                    0 # produce a file for the power trace (1=On, 0=Off)
-power_trace_zlevel                     6 # Compression level of the power trace output log (0=no comp, 9=highest)
-steady_power_levels_enabled                    0 # produce a file for the steady power levels (1=On, 0=Off)
-steady_state_definition                  8:4 # allowed deviation:number of samples
-gpgpu_max_cycle                        0 # terminates gpu simulation early (0 = no limit)
-gpgpu_max_insn                         0 # terminates gpu simulation early (0 = no limit)
-gpgpu_max_cta                          0 # terminates gpu simulation early (0 = no limit)
-gpgpu_max_completed_cta                    0 # terminates gpu simulation early (0 = no limit)
-gpgpu_runtime_stat                   500 # display runtime statistics such as dram utilization {<freq>:<flag>}
-liveness_message_freq                    1 # Minimum number of seconds between simulation liveness messages (0 = always print)
-gpgpu_compute_capability_major                    6 # Major compute capability version number
-gpgpu_compute_capability_minor                    1 # Minor compute capability version number
-gpgpu_flush_l1_cache                    1 # Flush L1 cache at the end of each kernel call
-gpgpu_flush_l2_cache                    0 # Flush L2 cache at the end of each kernel call
-gpgpu_deadlock_detect                    1 # Stop the simulation at deadlock (1=on (default), 0=off)
-gpgpu_ptx_instruction_classification                    0 # if enabled will classify ptx instruction types per kernel (Max 255 kernels now)
-gpgpu_ptx_sim_mode                     0 # Select between Performance (default) or Functional simulation (1)
-gpgpu_clock_domains 1417.0:1417.0:1417.0:2500.0 # Clock Domain Frequencies in MhZ {<Core Clock>:<ICNT Clock>:<L2 Clock>:<DRAM Clock>}
-gpgpu_max_concurrent_kernel                    8 # maximum kernels that can run concurrently on GPU
-gpgpu_cflog_interval                    0 # Interval between each snapshot in control flow logger
-visualizer_enabled                     0 # Turn on visualizer output (1=On, 0=Off)
-visualizer_outputfile                 NULL # Specifies the output log file for visualizer
-visualizer_zlevel                      6 # Compression level of the visualizer output log (0=no comp, 9=highest)
-gpgpu_stack_size_limit                 1024 # GPU thread stack size
-gpgpu_heap_size_limit              8388608 # GPU malloc heap size 
-gpgpu_runtime_sync_depth_limit                    2 # GPU device runtime synchronize depth
-gpgpu_runtime_pending_launch_count_limit                 2048 # GPU device runtime pending launch count
-trace_enabled                          0 # Turn on traces
-trace_components                    none # comma seperated list of traces to enable. Complete list found in trace_streams.tup. Default none
-trace_sampling_core                    0 # The core which is printed using CORE_DPRINTF. Default 0
-trace_sampling_memory_partition                   -1 # The memory partition which is printed using MEMPART_DPRINTF. Default -1 (i.e. all)
-enable_ptx_file_line_stats                    1 # Turn on PTX source line statistic profiling. (1 = On)
-ptx_line_stats_filename gpgpu_inst_stats.txt # Output file for PTX source line statistics.
-gpgpu_kernel_launch_latency                 5000 # Kernel launch latency in cycles. Default: 0
-gpgpu_cdp_enabled                      0 # Turn on CDP
-gpgpu_TB_launch_latency                    0 # thread block launch latency in cycles. Default: 0
DRAM Timing Options:
nbk                                    16 # number of banks
CCD                                     2 # column to column delay
RRD                                     8 # minimal delay between activation of rows in different banks
RCD                                    16 # row to column delay
RAS                                    37 # time needed to activate row
RP                                     16 # time needed to precharge (deactivate) row
RC                                     52 # row cycle time
CDLR                                    7 # switching from write to read (changes tWTR)
WR                                     16 # last data-in to row precharge
CL                                     16 # CAS latency
WL                                      6 # Write latency
nbkgrp                                  4 # number of bank groups
CCDL                                    4 # column to column delay between accesses to different bank groups
RTPL                                    3 # read to precharge delay between accesses to different bank groups
Total number of memory sub partition = 24
addr_dec_mask[CHIP]  = 0000000000000000 	high:64 low:0
addr_dec_mask[BK]    = 0000000000007080 	high:15 low:7
addr_dec_mask[ROW]   = 000000000fff8000 	high:28 low:15
addr_dec_mask[COL]   = 0000000000000f7f 	high:12 low:0
addr_dec_mask[BURST] = 000000000000001f 	high:5 low:0
sub_partition_id_mask = 0000000000000080
GPGPU-Sim uArch: clock freqs: 1417000000.000000:1417000000.000000:1417000000.000000:2500000000.000000
GPGPU-Sim uArch: clock periods: 0.00000000070571630205:0.00000000070571630205:0.00000000070571630205:0.00000000040000000000
*** Initializing Memory Statistics ***
GPGPU-Sim uArch: interconnect node map (shaderID+MemID to icntID)
GPGPU-Sim uArch: Memory nodes ID start from index: 28
GPGPU-Sim uArch:    0   1   2   3   4   5   6
GPGPU-Sim uArch:    7   8   9  10  11  12  13
GPGPU-Sim uArch:   14  15  16  17  18  19  20
GPGPU-Sim uArch:   21  22  23  24  25  26  27
GPGPU-Sim uArch:   28  29  30  31  32  33  34
GPGPU-Sim uArch:   35  36  37  38  39  40  41
GPGPU-Sim uArch:   42  43  44  45  46  47  48
GPGPU-Sim uArch:   49  50  51
GPGPU-Sim uArch: interconnect node reverse map (icntID to shaderID+MemID)
GPGPU-Sim uArch: Memory nodes start from ID: 28
GPGPU-Sim uArch:    0   1   2   3   4   5   6
GPGPU-Sim uArch:    7   8   9  10  11  12  13
GPGPU-Sim uArch:   14  15  16  17  18  19  20
GPGPU-Sim uArch:   21  22  23  24  25  26  27
GPGPU-Sim uArch:   28  29  30  31  32  33  34
GPGPU-Sim uArch:   35  36  37  38  39  40  41
GPGPU-Sim uArch:   42  43  44  45  46  47  48
GPGPU-Sim uArch:   49  50  51
GPGPU-Sim uArch: performance model initialization complete.
scheduler string: lrr
num_sched_per_core: 4
scheduler string: lrr
num_sched_per_core: 4
scheduler string: lrr
num_sched_per_core: 4
scheduler string: lrr
num_sched_per_core: 4
scheduler string: lrr
num_sched_per_core: 4
scheduler string: lrr
num_sched_per_core: 4
scheduler string: lrr
num_sched_per_core: 4
scheduler string: lrr
num_sched_per_core: 4
scheduler string: lrr
num_sched_per_core: 4
scheduler string: lrr
num_sched_per_core: 4
scheduler string: lrr
num_sched_per_core: 4
scheduler string: lrr
num_sched_per_core: 4
scheduler string: lrr
num_sched_per_core: 4
scheduler string: lrr
num_sched_per_core: 4
scheduler string: lrr
num_sched_per_core: 4
scheduler string: lrr
num_sched_per_core: 4
scheduler string: lrr
num_sched_per_core: 4
scheduler string: lrr
num_sched_per_core: 4
scheduler string: lrr
num_sched_per_core: 4
scheduler string: lrr
num_sched_per_core: 4
scheduler string: lrr
num_sched_per_core: 4
scheduler string: lrr
num_sched_per_core: 4
scheduler string: lrr
num_sched_per_core: 4
scheduler string: lrr
num_sched_per_core: 4
scheduler string: lrr
num_sched_per_core: 4
scheduler string: lrr
num_sched_per_core: 4
scheduler string: lrr
num_sched_per_core: 4
scheduler string: lrr
f1b536f412ea356974f8aa0bc0287ed4  /scratch/yc0769/benchmarks/gpu-rodinia/cuda/particlefilter/particlefilter_naive
Extracting PTX file and ptxas options    1: particlefilter_naive.1.sm_30.ptx -arch=sm_30
num_sched_per_core: 4
self exe links to: /scratch/yc0769/benchmarks/gpu-rodinia/cuda/particlefilter/particlefilter_naive
self exe links to: /scratch/yc0769/benchmarks/gpu-rodinia/cuda/particlefilter/particlefilter_naive
10.1
GPGPU-Sim PTX: __cudaRegisterFatBinary, fat_cubin_handle = 1, filename=default
self exe links to: /scratch/yc0769/benchmarks/gpu-rodinia/cuda/particlefilter/particlefilter_naive
Running md5sum using "md5sum /scratch/yc0769/benchmarks/gpu-rodinia/cuda/particlefilter/particlefilter_naive "
self exe links to: /scratch/yc0769/benchmarks/gpu-rodinia/cuda/particlefilter/particlefilter_naive
Extracting specific PTX file named particlefilter_naive.1.sm_30.ptx 
GPGPU-Sim PTX: __cudaRegisterFunction _Z6kernelPdS_S_S_S_S_i : hostFun 0x0x55dbff3c53a0, fat_cubin_handle = 1
GPGPU-Sim PTX: Parsing particlefilter_naive.1.sm_30.ptx
GPGPU-Sim PTX: instruction assembly for function '_Z6kernelPdS_S_S_S_S_i'...   done.
GPGPU-Sim PTX: finished parsing EMBEDDED .ptx file particlefilter_naive.1.sm_30.ptx
GPGPU-Sim PTX: loading globals with explicit initializers... 
GPGPU-Sim PTX: finished loading globals (0 bytes total).
GPGPU-Sim PTX: loading constants with explicit initializers...  done.
GPGPU-Sim PTX: Loading PTXInfo from particlefilter_naive.1.sm_30.ptx
GPGPU-Sim PTX: Kernel '_Z6kernelPdS_S_S_S_S_i' : regs=10, lmem=0, smem=0, cmem=372
VIDEO SEQUENCE TOOK 0.027144
distance: 5.656854
distance: 5.000000
distance: 4.472136
distance: 4.123106
distance: 4.000000
distance: 4.123106
distance: 4.472136
distance: 5.000000
distance: 5.656854
distance: 5.000000
distance: 4.242641
distance: 3.605551
distance: 3.162278
distance: 3.000000
distance: 3.162278
distance: 3.605551
distance: 4.242641
distance: 5.000000
distance: 4.472136
distance: 3.605551
distance: 2.828427
distance: 2.236068
distance: 2.000000
distance: 2.236068
distance: 2.828427
distance: 3.605551
distance: 4.472136
distance: 4.123106
distance: 3.162278
distance: 2.236068
distance: 1.414214
distance: 1.000000
distance: 1.414214
distance: 2.236068
distance: 3.162278
distance: 4.123106
distance: 4.000000
distance: 3.000000
distance: 2.000000
distance: 1.000000
distance: 0.000000
distance: 1.000000
distance: 2.000000
distance: 3.000000
distance: 4.000000
distance: 4.123106
distance: 3.162278
distance: 2.236068
distance: 1.414214
distance: 1.000000
distance: 1.414214
distance: 2.236068
distance: 3.162278
distance: 4.123106
distance: 4.472136
distance: 3.605551
distance: 2.828427
distance: 2.236068
distance: 2.000000
distance: 2.236068
distance: 2.828427
distance: 3.605551
distance: 4.472136
distance: 5.000000
distance: 4.242641
distance: 3.605551
distance: 3.162278
distance: 3.000000
distance: 3.162278
distance: 3.605551
distance: 4.242641
distance: 5.000000
distance: 5.656854
distance: 5.000000
distance: 4.472136
distance: 4.123106
distance: 4.000000
distance: 4.123106
distance: 4.472136
distance: 5.000000
distance: 5.656854
numOnes: 69
neighY*2: 0
neighY*2: 2
neighY*2: 4
neighY*2: 6
neighY*2: 8
neighY*2: 10
neighY*2: 12
neighY*2: 14
neighY*2: 16
neighY*2: 18
neighY*2: 20
neighY*2: 22
neighY*2: 24
neighY*2: 26
neighY*2: 28
neighY*2: 30
neighY*2: 32
neighY*2: 34
neighY*2: 36
neighY*2: 38
neighY*2: 40
neighY*2: 42
neighY*2: 44
neighY*2: 46
neighY*2: 48
neighY*2: 50
neighY*2: 52
neighY*2: 54
neighY*2: 56
neighY*2: 58
neighY*2: 60
neighY*2: 62
neighY*2: 64
neighY*2: 66
neighY*2: 68
neighY*2: 70
neighY*2: 72
neighY*2: 74
neighY*2: 76
neighY*2: 78
neighY*2: 80
neighY*2: 82
neighY*2: 84
neighY*2: 86
neighY*2: 88
neighY*2: 90
neighY*2: 92
neighY*2: 94
neighY*2: 96
neighY*2: 98
neighY*2: 100
neighY*2: 102
neighY*2: 104
neighY*2: 106
neighY*2: 108
neighY*2: 110
neighY*2: 112
neighY*2: 114
neighY*2: 116
neighY*2: 118
neighY*2: 120
neighY*2: 122
neighY*2: 124
neighY*2: 126
neighY*2: 128
neighY*2: 130
neighY*2: 132
neighY*2: 134
neighY*2: 136
neighY*2: 138
neighY*2: 140
neighY*2: 142
neighY*2: 144
TIME TO GET NEIGHBORS TOOK: 0.000032
Size of: 8000
Malloc done
Write done
TIME TO GET WEIGHTSTOOK: 0.000007
TIME TO SET ERROR TOOK: 0.000237
TIME TO GET LIKELIHOODS TOOK: 0.000563
TIME TO GET EXP TOOK: 0.000032
TIME TO SUM WEIGHTS TOOK: 0.000001
TIME TO NORMALIZE WEIGHTS TOOK: 0.000004
TIME TO MOVE OBJECT TOOK: 0.000001
XE: 64.469266
YE: 64.566333
0.735489
TIME TO CALC CUM SUM TOOK: 0.000007
TIME TO CALC U TOOK: 0.000005
GPGPU-Sim PTX: Setting up arguments for 8 bytes starting at 0x7ffdd6c2f7f0..
GPGPU-Sim PTX: Setting up arguments for 8 bytes starting at 0x7ffdd6c2f7f8..
GPGPU-Sim PTX: Setting up arguments for 8 bytes starting at 0x7ffdd6c2f800..
GPGPU-Sim PTX: Setting up arguments for 8 bytes starting at 0x7ffdd6c2f808..
GPGPU-Sim PTX: Setting up arguments for 8 bytes starting at 0x7ffdd6c2f810..
GPGPU-Sim PTX: Setting up arguments for 8 bytes starting at 0x7ffdd6c2f818..
GPGPU-Sim PTX: Setting up arguments for 4 bytes starting at 0x7ffdd6c2f7bc..

GPGPU-Sim PTX: cudaLaunch for 0x0x55dbff3c53a0 (mode=performance simulation) on stream 0
GPGPU-Sim PTX: finding reconvergence points for '_Z6kernelPdS_S_S_S_S_i'...
GPGPU-Sim PTX: Finding dominators for '_Z6kernelPdS_S_S_S_S_i'...
GPGPU-Sim PTX: Finding immediate dominators for '_Z6kernelPdS_S_S_S_S_i'...
GPGPU-Sim PTX: Finding postdominators for '_Z6kernelPdS_S_S_S_S_i'...
GPGPU-Sim PTX: Finding immediate postdominators for '_Z6kernelPdS_S_S_S_S_i'...
GPGPU-Sim PTX: pre-decoding instructions for '_Z6kernelPdS_S_S_S_S_i'...
GPGPU-Sim PTX: reconvergence points for _Z6kernelPdS_S_S_S_S_i...
GPGPU-Sim PTX:  1 (potential) branch divergence @  PC=0x060 (particlefilter_naive.1.sm_30.ptx:43) @%p1 bra BB0_7;
GPGPU-Sim PTX:    immediate post dominator      @  PC=0x188 (particlefilter_naive.1.sm_30.ptx:91) ret;
GPGPU-Sim PTX:  2 (potential) branch divergence @  PC=0x078 (particlefilter_naive.1.sm_30.ptx:47) @%p2 bra BB0_5;
GPGPU-Sim PTX:    immediate post dominator      @  PC=0x100 (particlefilter_naive.1.sm_30.ptx:72) cvta.to.global.u64 %rd13, %rd7;
GPGPU-Sim PTX:  3 (potential) branch divergence @  PC=0x0d8 (particlefilter_naive.1.sm_30.ptx:62) @%p3 bra BB0_6;
GPGPU-Sim PTX:    immediate post dominator      @  PC=0x100 (particlefilter_naive.1.sm_30.ptx:72) cvta.to.global.u64 %rd13, %rd7;
GPGPU-Sim PTX:  4 (potential) branch divergence @  PC=0x0f0 (particlefilter_naive.1.sm_30.ptx:66) @%p4 bra BB0_3;
GPGPU-Sim PTX:    immediate post dominator      @  PC=0x100 (particlefilter_naive.1.sm_30.ptx:72) cvta.to.global.u64 %rd13, %rd7;
GPGPU-Sim PTX: ... end of reconvergence points for _Z6kernelPdS_S_S_S_S_i
GPGPU-Sim PTX: ... done pre-decoding instructions for '_Z6kernelPdS_S_S_S_S_i'.
GPGPU-Sim PTX: pushing kernel '_Z6kernelPdS_S_S_S_S_i' to stream 0, gridDim= (8,1,1) blockDim = (128,1,1) 
GPGPU-Sim uArch: Shader 0 bind to kernel 1 '_Z6kernelPdS_S_S_S_S_i'
GPGPU-Sim uArch: CTA/core = 16, limited by: threads
GPGPU-Sim uArch: Shader 1 bind to kernel 1 '_Z6kernelPdS_S_S_S_S_i'
GPGPU-Sim uArch: Shader 2 bind to kernel 1 '_Z6kernelPdS_S_S_S_S_i'
GPGPU-Sim uArch: Shader 3 bind to kernel 1 '_Z6kernelPdS_S_S_S_S_i'
GPGPU-Sim uArch: Shader 4 bind to kernel 1 '_Z6kernelPdS_S_S_S_S_i'
GPGPU-Sim uArch: Shader 5 bind to kernel 1 '_Z6kernelPdS_S_S_S_S_i'
GPGPU-Sim uArch: Shader 6 bind to kernel 1 '_Z6kernelPdS_S_S_S_S_i'
GPGPU-Sim uArch: Shader 7 bind to kernel 1 '_Z6kernelPdS_S_S_S_S_i'
Destroy streams for kernel 1: size 0
kernel_name = _Z6kernelPdS_S_S_S_S_i 
kernel_launch_uid = 1 
gpu_sim_cycle = 148919
gpu_sim_insn = 5140336
gpu_ipc =      34.5177
gpu_tot_sim_cycle = 148919
gpu_tot_sim_insn = 5140336
gpu_tot_ipc =      34.5177
gpu_tot_issued_cta = 8
gpu_occupancy = 5.7737% 
gpu_tot_occupancy = 5.7737% 
max_total_param_size = 0
gpu_stall_dramfull = 0
gpu_stall_icnt2sh    = 0
partiton_level_parallism =       0.1468
partiton_level_parallism_total  =       0.1468
partiton_level_parallism_util =       1.0187
partiton_level_parallism_util_total  =       1.0187
L2_BW  =       6.6893 GB/Sec
L2_BW_total  =       6.6893 GB/Sec
gpu_total_sim_rate=122388

========= Core cache stats =========
L1I_cache:
	L1I_total_cache_accesses = 105633
	L1I_total_cache_misses = 122
	L1I_total_cache_miss_rate = 0.0012
	L1I_total_cache_pending_hits = 0
	L1I_total_cache_reservation_fails = 0
L1D_cache:
	L1D_cache_core[0]: Access = 0, Miss = 0, Miss_rate = -nan, Pending_hits = 0, Reservation_fails = 0
	L1D_cache_core[1]: Access = 0, Miss = 0, Miss_rate = -nan, Pending_hits = 0, Reservation_fails = 0
	L1D_cache_core[2]: Access = 0, Miss = 0, Miss_rate = -nan, Pending_hits = 0, Reservation_fails = 0
	L1D_cache_core[3]: Access = 0, Miss = 0, Miss_rate = -nan, Pending_hits = 0, Reservation_fails = 0
	L1D_cache_core[4]: Access = 0, Miss = 0, Miss_rate = -nan, Pending_hits = 0, Reservation_fails = 0
	L1D_cache_core[5]: Access = 0, Miss = 0, Miss_rate = -nan, Pending_hits = 0, Reservation_fails = 0
	L1D_cache_core[6]: Access = 0, Miss = 0, Miss_rate = -nan, Pending_hits = 0, Reservation_fails = 0
	L1D_cache_core[7]: Access = 0, Miss = 0, Miss_rate = -nan, Pending_hits = 0, Reservation_fails = 0
	L1D_cache_core[8]: Access = 0, Miss = 0, Miss_rate = -nan, Pending_hits = 0, Reservation_fails = 0
	L1D_cache_core[9]: Access = 0, Miss = 0, Miss_rate = -nan, Pending_hits = 0, Reservation_fails = 0
	L1D_cache_core[10]: Access = 0, Miss = 0, Miss_rate = -nan, Pending_hits = 0, Reservation_fails = 0
	L1D_cache_core[11]: Access = 0, Miss = 0, Miss_rate = -nan, Pending_hits = 0, Reservation_fails = 0
	L1D_cache_core[12]: Access = 0, Miss = 0, Miss_rate = -nan, Pending_hits = 0, Reservation_fails = 0
	L1D_cache_core[13]: Access = 0, Miss = 0, Miss_rate = -nan, Pending_hits = 0, Reservation_fails = 0
	L1D_cache_core[14]: Access = 0, Miss = 0, Miss_rate = -nan, Pending_hits = 0, Reservation_fails = 0
	L1D_cache_core[15]: Access = 0, Miss = 0, Miss_rate = -nan, Pending_hits = 0, Reservation_fails = 0
	L1D_cache_core[16]: Access = 0, Miss = 0, Miss_rate = -nan, Pending_hits = 0, Reservation_fails = 0
	L1D_cache_core[17]: Access = 0, Miss = 0, Miss_rate = -nan, Pending_hits = 0, Reservation_fails = 0
	L1D_cache_core[18]: Access = 0, Miss = 0, Miss_rate = -nan, Pending_hits = 0, Reservation_fails = 0
	L1D_cache_core[19]: Access = 0, Miss = 0, Miss_rate = -nan, Pending_hits = 0, Reservation_fails = 0
	L1D_cache_core[20]: Access = 0, Miss = 0, Miss_rate = -nan, Pending_hits = 0, Reservation_fails = 0
	L1D_cache_core[21]: Access = 0, Miss = 0, Miss_rate = -nan, Pending_hits = 0, Reservation_fails = 0
	L1D_cache_core[22]: Access = 0, Miss = 0, Miss_rate = -nan, Pending_hits = 0, Reservation_fails = 0
	L1D_cache_core[23]: Access = 0, Miss = 0, Miss_rate = -nan, Pending_hits = 0, Reservation_fails = 0
	L1D_cache_core[24]: Access = 0, Miss = 0, Miss_rate = -nan, Pending_hits = 0, Reservation_fails = 0
	L1D_cache_core[25]: Access = 0, Miss = 0, Miss_rate = -nan, Pending_hits = 0, Reservation_fails = 0
	L1D_cache_core[26]: Access = 0, Miss = 0, Miss_rate = -nan, Pending_hits = 0, Reservation_fails = 0
	L1D_cache_core[27]: Access = 0, Miss = 0, Miss_rate = -nan, Pending_hits = 0, Reservation_fails = 0
	L1D_total_cache_accesses = 0
	L1D_total_cache_misses = 0
	L1D_total_cache_pending_hits = 0
	L1D_total_cache_reservation_fails = 0
	L1D_cache_data_port_util = 0.000
	L1D_cache_fill_port_util = 0.000
L1C_cache:
	L1C_total_cache_accesses = 224
	L1C_total_cache_misses = 224
	L1C_total_cache_miss_rate = 1.0000
	L1C_total_cache_pending_hits = 0
	L1C_total_cache_reservation_fails = 0
L1T_cache:
	L1T_total_cache_accesses = 0
	L1T_total_cache_misses = 0
	L1T_total_cache_pending_hits = 0
	L1T_total_cache_reservation_fails = 0

Total_core_cache_stats:
	Total_core_cache_stats_breakdown[GLOBAL_ACC_R][HIT] = 0
	Total_core_cache_stats_breakdown[GLOBAL_ACC_R][HIT_RESERVED] = 0
	Total_core_cache_stats_breakdown[GLOBAL_ACC_R][MISS] = 0
	Total_core_cache_stats_breakdown[GLOBAL_ACC_R][RESERVATION_FAIL] = 0
	Total_core_cache_stats_breakdown[GLOBAL_ACC_R][SECTOR_MISS] = 0
	Total_core_cache_stats_breakdown[LOCAL_ACC_R][HIT] = 0
	Total_core_cache_stats_breakdown[LOCAL_ACC_R][HIT_RESERVED] = 0
	Total_core_cache_stats_breakdown[LOCAL_ACC_R][MISS] = 0
	Total_core_cache_stats_breakdown[LOCAL_ACC_R][RESERVATION_FAIL] = 0
	Total_core_cache_stats_breakdown[LOCAL_ACC_R][SECTOR_MISS] = 0
	Total_core_cache_stats_breakdown[CONST_ACC_R][HIT] = 0
	Total_core_cache_stats_breakdown[CONST_ACC_R][HIT_RESERVED] = 0
	Total_core_cache_stats_breakdown[CONST_ACC_R][MISS] = 224
	Total_core_cache_stats_breakdown[CONST_ACC_R][RESERVATION_FAIL] = 0
	Total_core_cache_stats_breakdown[CONST_ACC_R][SECTOR_MISS] = 0
	Total_core_cache_stats_breakdown[TEXTURE_ACC_R][HIT] = 0
	Total_core_cache_stats_breakdown[TEXTURE_ACC_R][HIT_RESERVED] = 0
	Total_core_cache_stats_breakdown[TEXTURE_ACC_R][MISS] = 0
	Total_core_cache_stats_breakdown[TEXTURE_ACC_R][RESERVATION_FAIL] = 0
	Total_core_cache_stats_breakdown[TEXTURE_ACC_R][SECTOR_MISS] = 0
	Total_core_cache_stats_breakdown[GLOBAL_ACC_W][HIT] = 0
	Total_core_cache_stats_breakdown[GLOBAL_ACC_W][HIT_RESERVED] = 0
	Total_core_cache_stats_breakdown[GLOBAL_ACC_W][MISS] = 0
	Total_core_cache_stats_breakdown[GLOBAL_ACC_W][RESERVATION_FAIL] = 0
	Total_core_cache_stats_breakdown[GLOBAL_ACC_W][SECTOR_MISS] = 0
	Total_core_cache_stats_breakdown[LOCAL_ACC_W][HIT] = 0
	Total_core_cache_stats_breakdown[LOCAL_ACC_W][HIT_RESERVED] = 0
	Total_core_cache_stats_breakdown[LOCAL_ACC_W][MISS] = 0
	Total_core_cache_stats_breakdown[LOCAL_ACC_W][RESERVATION_FAIL] = 0
	Total_core_cache_stats_breakdown[LOCAL_ACC_W][SECTOR_MISS] = 0
	Total_core_cache_stats_breakdown[L1_WRBK_ACC][HIT] = 0
	Total_core_cache_stats_breakdown[L1_WRBK_ACC][HIT_RESERVED] = 0
	Total_core_cache_stats_breakdown[L1_WRBK_ACC][MISS] = 0
	Total_core_cache_stats_breakdown[L1_WRBK_ACC][RESERVATION_FAIL] = 0
	Total_core_cache_stats_breakdown[L1_WRBK_ACC][SECTOR_MISS] = 0
	Total_core_cache_stats_breakdown[L2_WRBK_ACC][HIT] = 0
	Total_core_cache_stats_breakdown[L2_WRBK_ACC][HIT_RESERVED] = 0
	Total_core_cache_stats_breakdown[L2_WRBK_ACC][MISS] = 0
	Total_core_cache_stats_breakdown[L2_WRBK_ACC][RESERVATION_FAIL] = 0
	Total_core_cache_stats_breakdown[L2_WRBK_ACC][SECTOR_MISS] = 0
	Total_core_cache_stats_breakdown[INST_ACC_R][HIT] = 105511
	Total_core_cache_stats_breakdown[INST_ACC_R][HIT_RESERVED] = 0
	Total_core_cache_stats_breakdown[INST_ACC_R][MISS] = 122
	Total_core_cache_stats_breakdown[INST_ACC_R][RESERVATION_FAIL] = 0
	Total_core_cache_stats_breakdown[INST_ACC_R][SECTOR_MISS] = 0
	Total_core_cache_stats_breakdown[L1_WR_ALLOC_R][HIT] = 0
	Total_core_cache_stats_breakdown[L1_WR_ALLOC_R][HIT_RESERVED] = 0
	Total_core_cache_stats_breakdown[L1_WR_ALLOC_R][MISS] = 0
	Total_core_cache_stats_breakdown[L1_WR_ALLOC_R][RESERVATION_FAIL] = 0
	Total_core_cache_stats_breakdown[L1_WR_ALLOC_R][SECTOR_MISS] = 0
	Total_core_cache_stats_breakdown[L2_WR_ALLOC_R][HIT] = 0
	Total_core_cache_stats_breakdown[L2_WR_ALLOC_R][HIT_RESERVED] = 0
	Total_core_cache_stats_breakdown[L2_WR_ALLOC_R][MISS] = 0
	Total_core_cache_stats_breakdown[L2_WR_ALLOC_R][RESERVATION_FAIL] = 0
	Total_core_cache_stats_breakdown[L2_WR_ALLOC_R][SECTOR_MISS] = 0
	Total_core_cache_stats_breakdown[CONST_ACC_R][TOTAL_ACCESS] = 224
	Total_core_cache_stats_breakdown[INST_ACC_R][TOTAL_ACCESS] = 105633

Total_core_cache_fail_stats:
ctas_completed 8, Shader 0 warp_id issue ditsribution:
warp_id:
0, 1, 2, 3, 
distro:
2098, 2098, 2098, 2098, 
gpgpu_n_tot_thrd_icount = 6087328
gpgpu_n_tot_w_icount = 190229
gpgpu_n_stall_shd_mem = 660
gpgpu_n_mem_read_local = 0
gpgpu_n_mem_write_local = 0
gpgpu_n_mem_read_global = 21325
gpgpu_n_mem_write_global = 500
gpgpu_n_mem_texture = 0
gpgpu_n_mem_const = 8
gpgpu_n_load_insn  = 641000
gpgpu_n_store_insn = 2000
gpgpu_n_shmem_insn = 0
gpgpu_n_sstarr_insn = 0
gpgpu_n_tex_insn = 0
gpgpu_n_const_mem_insn = 0
gpgpu_n_param_mem_insn = 7168
gpgpu_n_shmem_bkconflict = 0
gpgpu_n_cache_bkconflict = 0
gpgpu_n_intrawarp_mshr_merge = 0
gpgpu_n_cmem_portconflict = 0
gpgpu_stall_shd_mem[c_mem][resource_stall] = 0
gpgpu_stall_shd_mem[s_mem][bk_conf] = 0
gpgpu_stall_shd_mem[gl_mem][resource_stall] = 0
gpgpu_stall_shd_mem[gl_mem][coal_stall] = 660
gpgpu_stall_shd_mem[gl_mem][data_port_stall] = 0
gpu_reg_bank_conflict_stalls = 0
Warp Occupancy Distribution:
Stall:184	W0_Idle:359381	W0_Scoreboard:3461822	W1:0	W2:0	W3:0	W4:0	W5:0	W6:4392	W7:0	W8:7385	W9:0	W10:0	W11:0	W12:639	W13:0	W14:0	W15:0	W16:0	W17:0	W18:270	W19:0	W20:0	W21:0	W22:0	W23:0	W24:0	W25:0	W26:0	W27:0	W28:0	W29:0	W30:0	W31:0	W32:177543
single_issue_nums: WS0:46232	WS1:46232	WS2:46232	WS3:51533	
dual_issue_nums: WS0:0	WS1:0	WS2:0	WS3:0	
traffic_breakdown_coretomem[CONST_ACC_R] = 64 {8:8,}
traffic_breakdown_coretomem[GLOBAL_ACC_R] = 170600 {8:21325,}
traffic_breakdown_coretomem[GLOBAL_ACC_W] = 20000 {40:500,}
traffic_breakdown_coretomem[INST_ACC_R] = 256 {8:32,}
traffic_breakdown_memtocore[CONST_ACC_R] = 640 {40:16,}
traffic_breakdown_memtocore[GLOBAL_ACC_R] = 853000 {40:21325,}
traffic_breakdown_memtocore[GLOBAL_ACC_W] = 4000 {8:500,}
traffic_breakdown_memtocore[INST_ACC_R] = 5120 {40:128,}
maxmflatency = 259 
max_icnt2mem_latency = 37 
maxmrqlatency = 12 
max_icnt2sh_latency = 14 
averagemflatency = 136 
avg_icnt2mem_latency = 7 
avg_mrq_latency = 5 
avg_icnt2sh_latency = 7 
mrq_lat_table:7 	1 	0 	10 	0 	0 	0 	0 	0 	0 	0 	0 	0 	0 	0 	0 	0 	0 	0 	0 	0 	0 	0 	0 	0 	0 	0 	0 	0 	0 	0 	0 	
dq_lat_table:0 	0 	0 	0 	0 	0 	0 	0 	0 	0 	0 	0 	0 	0 	0 	0 	0 	0 	0 	0 	0 	0 	0 	0 	0 	0 	0 	0 	0 	0 	0 	0 	
mf_lat_table:0 	0 	0 	0 	0 	0 	0 	21833 	8 	0 	0 	0 	0 	0 	0 	0 	0 	0 	0 	0 	0 	0 	0 	0 	0 	0 	0 	0 	0 	0 	0 	0 	
icnt2mem_lat_table:0 	0 	21448 	355 	55 	7 	0 	0 	0 	0 	0 	0 	0 	0 	0 	0 	0 	0 	0 	0 	0 	0 	0 	0 	
icnt2sh_lat_table:0 	0 	21709 	132 	0 	0 	0 	0 	0 	0 	0 	0 	0 	0 	0 	0 	0 	0 	0 	0 	0 	0 	0 	0 	
mf_lat_pw_table:0 	0 	0 	0 	0 	0 	0 	286 	0 	0 	0 	0 	0 	0 	0 	0 	0 	0 	0 	0 	0 	0 	0 	0 	0 	0 	0 	0 	0 	0 	0 	0 	
maximum concurrent accesses to same row:
dram[0]:         0         0         0         0         0         0         0         0         0         0         0         0         0         0         0         0 
dram[1]:         0         0         0         0         0         0         0         0         0         0         0         0         0         0         0         0 
dram[2]:         0         0         0         0         0         0         0         0         0         0         0         0         0         0         0         0 
dram[3]:         0         0         0         0         0         0         0         0         0         0         0         0         0         0         0         0 
dram[4]:         0         0         0         0         0         0         0         0         0         0         0         0         0         0         0         0 
dram[5]:         0         0         0         0         0         0         0         0         0         0         0         0         0         0         0         0 
dram[6]:         0         0         0         0         0         0         0         0         0         0         0         0         0         0         0         0 
dram[7]:         0         0         0         0         0         0         0         0         0         0         0         0         0         0         0         0 
dram[8]:         0         0         0         0         0         0         0         0         0         0         0         0         0         0         0         0 
dram[9]:         0         0         0         0         0         0         0         0         0         0         0         0         0         0         0         0 
dram[10]:         0         0         0         0         0         0         0         0         0         0         0         0         0         0         0         0 
dram[11]:         0         0         0         0         0         0         0         0         0         0         0         0         0         0         0         0 
maximum service time to same row:
dram[0]:         0     46438         0         0         0         0         0         0         0         0         0         0         0         0         0         0 
dram[1]:         0         0         0         0         0         0         0         0         0         0         0         0         0         0         0         0 
dram[2]:      5231         0         0         0         0         0         0         0         0         0         0         0         0         0         0         0 
dram[3]:         0         0         0         0         0         0         0         0         0         0         0         0         0         0         0         0 
dram[4]:         0         0         0         0         0         0         0         0         0         0         0         0         0         0         0         0 
dram[5]:         0      5823         0         0         0         0         0         0         0         0         0         0         0         0         0         0 
dram[6]:         0         0         0         0         0         0         0         0         0         0         0         0         0         0         0         0 
dram[7]:         0         0         0         0         0         0         0         0         0         0         0         0         0         0         0         0 
dram[8]:         0         0         0         0         0         0         0         0         0         0         0         0         0         0         0         0 
dram[9]:         0         0         0         0         0         0         0         0         0         0         0         0         0         0         0         0 
dram[10]:         0         0         0         0         0         0         0         0         0         0         0         0         0         0         0         0 
dram[11]:         0         0         0         0         0         0         0         0         0         0         0         0         0         0         0         0 
average row accesses per activate:
dram[0]:      -nan  4.000000      -nan      -nan      -nan      -nan      -nan      -nan      -nan      -nan      -nan      -nan      -nan      -nan      -nan      -nan 
dram[1]:      -nan      -nan      -nan      -nan      -nan      -nan      -nan      -nan      -nan      -nan      -nan      -nan      -nan      -nan      -nan      -nan 
dram[2]:  8.000000      -nan      -nan      -nan      -nan      -nan      -nan      -nan      -nan      -nan      -nan      -nan      -nan      -nan      -nan      -nan 
dram[3]:      -nan      -nan      -nan      -nan      -nan      -nan      -nan      -nan      -nan      -nan      -nan      -nan      -nan      -nan      -nan      -nan 
dram[4]:      -nan      -nan      -nan      -nan      -nan      -nan      -nan      -nan      -nan      -nan      -nan      -nan      -nan      -nan      -nan      -nan 
dram[5]:      -nan  4.000000      -nan      -nan      -nan      -nan      -nan      -nan      -nan      -nan      -nan      -nan      -nan      -nan      -nan      -nan 
dram[6]:      -nan      -nan      -nan      -nan      -nan      -nan      -nan      -nan      -nan      -nan      -nan      -nan      -nan      -nan      -nan      -nan 
dram[7]:      -nan      -nan      -nan      -nan      -nan      -nan      -nan      -nan      -nan      -nan      -nan      -nan      -nan      -nan      -nan      -nan 
dram[8]:      -nan      -nan      -nan      -nan      -nan      -nan      -nan      -nan      -nan      -nan      -nan      -nan      -nan      -nan      -nan      -nan 
dram[9]:      -nan      -nan      -nan      -nan      -nan      -nan      -nan      -nan      -nan      -nan      -nan      -nan      -nan      -nan      -nan      -nan 
dram[10]:      -nan      -nan      -nan      -nan      -nan      -nan      -nan      -nan      -nan      -nan      -nan      -nan      -nan      -nan      -nan      -nan 
dram[11]:       inf      -nan      -nan      -nan      -nan      -nan      -nan      -nan      -nan      -nan      -nan      -nan      -nan      -nan      -nan      -nan 
average row locality = 18/3 = 6.000000
number of total memory accesses made:
dram[0]:         0         0         0         0         0         0         0         0         0         0         0         0         0         0         0         0 
dram[1]:         0         0         0         0         0         0         0         0         0         0         0         0         0         0         0         0 
dram[2]:         0         0         0         0         0         0         0         0         0         0         0         0         0         0         0         0 
dram[3]:         0         0         0         0         0         0         0         0         0         0         0         0         0         0         0         0 
dram[4]:         0         0         0         0         0         0         0         0         0         0         0         0         0         0         0         0 
dram[5]:         0         0         0         0         0         0         0         0         0         0         0         0         0         0         0         0 
dram[6]:         0         0         0         0         0         0         0         0         0         0         0         0         0         0         0         0 
dram[7]:         0         0         0         0         0         0         0         0         0         0         0         0         0         0         0         0 
dram[8]:         0         0         0         0         0         0         0         0         0         0         0         0         0         0         0         0 
dram[9]:         0         0         0         0         0         0         0         0         0         0         0         0         0         0         0         0 
dram[10]:         0         0         0         0         0         0         0         0         0         0         0         0         0         0         0         0 
dram[11]:         0         0         0         0         0         0         0         0         0         0         0         0         0         0         0         0 
total accesses: 0
min_bank_accesses = 0!
min_chip_accesses = 0!
number of total read accesses:
dram[0]:         0         4         0         0         0         0         0         0         0         0         0         0         0         0         0         0 
dram[1]:         0         0         0         0         0         0         0         0         0         0         0         0         0         0         0         0 
dram[2]:         8         0         0         0         0         0         0         0         0         0         0         0         0         0         0         0 
dram[3]:         0         0         0         0         0         0         0         0         0         0         0         0         0         0         0         0 
dram[4]:         0         0         0         0         0         0         0         0         0         0         0         0         0         0         0         0 
dram[5]:         0         4         0         0         0         0         0         0         0         0         0         0         0         0         0         0 
dram[6]:         0         0         0         0         0         0         0         0         0         0         0         0         0         0         0         0 
dram[7]:         0         0         0         0         0         0         0         0         0         0         0         0         0         0         0         0 
dram[8]:         0         0         0         0         0         0         0         0         0         0         0         0         0         0         0         0 
dram[9]:         0         0         0         0         0         0         0         0         0         0         0         0         0         0         0         0 
dram[10]:         0         0         0         0         0         0         0         0         0         0         0         0         0         0         0         0 
dram[11]:         2         0         0         0         0         0         0         0         0         0         0         0         0         0         0         0 
total dram reads = 18
min_bank_accesses = 0!
min_chip_accesses = 0!
number of total write accesses:
dram[0]:         0         0         0         0         0         0         0         0         0         0         0         0         0         0         0         0 
dram[1]:         0         0         0         0         0         0         0         0         0         0         0         0         0         0         0         0 
dram[2]:         0         0         0         0         0         0         0         0         0         0         0         0         0         0         0         0 
dram[3]:         0         0         0         0         0         0         0         0         0         0         0         0         0         0         0         0 
dram[4]:         0         0         0         0         0         0         0         0         0         0         0         0         0         0         0         0 
dram[5]:         0         0         0         0         0         0         0         0         0         0         0         0         0         0         0         0 
dram[6]:         0         0         0         0         0         0         0         0         0         0         0         0         0         0         0         0 
dram[7]:         0         0         0         0         0         0         0         0         0         0         0         0         0         0         0         0 
dram[8]:         0         0         0         0         0         0         0         0         0         0         0         0         0         0         0         0 
dram[9]:         0         0         0         0         0         0         0         0         0         0         0         0         0         0         0         0 
dram[10]:         0         0         0         0         0         0         0         0         0         0         0         0         0         0         0         0 
dram[11]:         0         0         0         0         0         0         0         0         0         0         0         0         0         0         0         0 
total dram writes = 0
min_bank_accesses = 0!
min_chip_accesses = 0!
average mf latency per bank:
dram[0]:     none        1236    none      none      none      none      none      none      none      none      none      none      none      none      none      none  
dram[1]:     none      none      none      none      none      none      none      none      none      none      none      none      none      none      none      none  
dram[2]:      16054    none      none      none      none      none      none      none      none      none      none      none      none      none      none      none  
dram[3]:     none      none      none      none      none      none      none      none      none      none      none      none      none      none      none      none  
dram[4]:     none      none      none      none      none      none      none      none      none      none      none      none      none      none      none      none  
dram[5]:     none       42317    none      none      none      none      none      none      none      none      none      none      none      none      none      none  
dram[6]:     none      none      none      none      none      none      none      none      none      none      none      none      none      none      none      none  
dram[7]:     none      none      none      none      none      none      none      none      none      none      none      none      none      none      none      none  
dram[8]:     none      none      none      none      none      none      none      none      none      none      none      none      none      none      none      none  
dram[9]:     none      none      none      none      none      none      none      none      none      none      none      none      none      none      none      none  
dram[10]:     none      none      none      none      none      none      none      none      none      none      none      none      none      none      none      none  
dram[11]:      37407    none      none      none      none      none      none      none      none      none      none      none      none      none      none      none  
maximum mf latency per bank:
dram[0]:        147       143         0         0         0         0         0         0         0         0         0         0         0         0         0         0
dram[1]:        147       142         0         0         0         0         0         0         0         0         0         0         0         0         0         0
dram[2]:        142       146         0         0         0         0         0         0         0         0         0         0         0         0         0         0
dram[3]:        142       147         0         0         0         0         0         0         0         0         0         0         0         0         0         0
dram[4]:        146       143         0         0         0         0         0         0         0         0         0         0         0         0         0         0
dram[5]:        147       147         0         0         0         0         0         0         0         0         0         0         0         0         0         0
dram[6]:        166       146         0         0         0         0         0         0         0         0         0         0         0         0         0         0
dram[7]:        147       141         0         0         0         0         0         0         0         0         0         0         0         0         0         0
dram[8]:        142       147         0         0         0         0         0         0         0         0         0         0         0         0         0         0
dram[9]:        147       146         0         0         0         0         0         0         0         0         0         0         0         0         0         0
dram[10]:        146       143         0         0         0         0         0         0         0         0         0         0         0         0         0         0
dram[11]:        259       143         0         0         0         0         0         0         0         0         0         0         0         0         0         0
Memory Partition 0: 
Cache L2_bank_000:
MSHR contents

Cache L2_bank_001:
MSHR contents

In Dram Latency Queue (total = 0): 
DRAM[0]: 16 bks, busW=4 BL=8 CL=16, tRRD=8 tCCD=2, tRCD=16 tRAS=37 tRP=16 tRC=52
n_cmd=262735 n_nop=262730 n_act=1 n_pre=0 n_ref_event=0 n_req=4 n_rd=4 n_rd_L2_A=0 n_write=0 n_wr_bk=0 bw_util=3.045e-05
n_activity=52 dram_eff=0.1538
bk0: 0a 262735i bk1: 4a 262710i bk2: 0a 262734i bk3: 0a 262735i bk4: 0a 262735i bk5: 0a 262735i bk6: 0a 262735i bk7: 0a 262735i bk8: 0a 262735i bk9: 0a 262735i bk10: 0a 262735i bk11: 0a 262735i bk12: 0a 262735i bk13: 0a 262735i bk14: 0a 262735i bk15: 0a 262735i 

------------------------------------------------------------------------

Row_Buffer_Locality = 0.750000
Row_Buffer_Locality_read = 0.750000
Row_Buffer_Locality_write = -nan
Bank_Level_Parallism = 1.000000
Bank_Level_Parallism_Col = 1.000000
Bank_Level_Parallism_Ready = 1.000000
write_to_read_ratio_blp_rw_average = 0.000000
GrpLevelPara = 1.000000 

BW Util details:
bwutil = 0.000030 
total_CMD = 262735 
util_bw = 8 
Wasted_Col = 22 
Wasted_Row = 0 
Idle = 262705 

BW Util Bottlenecks: 
RCDc_limit = 16 
RCDWRc_limit = 0 
WTRc_limit = 0 
RTWc_limit = 0 
CCDLc_limit = 6 
rwq = 0 
CCDLc_limit_alone = 6 
WTRc_limit_alone = 0 
RTWc_limit_alone = 0 

Commands details: 
total_CMD = 262735 
n_nop = 262730 
Read = 4 
Write = 0 
L2_Alloc = 0 
L2_WB = 0 
n_act = 1 
n_pre = 0 
n_ref = 0 
n_req = 4 
total_req = 4 

Dual Bus Interface Util: 
issued_total_row = 1 
issued_total_col = 4 
Row_Bus_Util =  0.000004 
CoL_Bus_Util = 0.000015 
Either_Row_CoL_Bus_Util = 0.000019 
Issued_on_Two_Bus_Simul_Util = 0.000000 
issued_two_Eff = 0.000000 
queue_avg = 0.000202 


dram_util_bins: 0 0 0 0 0 0 0 0 0 0
dram_eff_bins: 0 0 0 0 0 0 0 0 0 0
mrqq: max=3 avg=0.000201724
Memory Partition 1: 
Cache L2_bank_002:
MSHR contents

Cache L2_bank_003:
MSHR contents

In Dram Latency Queue (total = 0): 
DRAM[1]: 16 bks, busW=4 BL=8 CL=16, tRRD=8 tCCD=2, tRCD=16 tRAS=37 tRP=16 tRC=52
n_cmd=262735 n_nop=262735 n_act=0 n_pre=0 n_ref_event=0 n_req=0 n_rd=0 n_rd_L2_A=0 n_write=0 n_wr_bk=0 bw_util=0
n_activity=0 dram_eff=-nan
bk0: 0a 262735i bk1: 0a 262735i bk2: 0a 262735i bk3: 0a 262735i bk4: 0a 262735i bk5: 0a 262735i bk6: 0a 262735i bk7: 0a 262735i bk8: 0a 262735i bk9: 0a 262735i bk10: 0a 262735i bk11: 0a 262735i bk12: 0a 262735i bk13: 0a 262735i bk14: 0a 262735i bk15: 0a 262735i 

------------------------------------------------------------------------

Row_Buffer_Locality = -nan
Row_Buffer_Locality_read = -nan
Row_Buffer_Locality_write = -nan
Bank_Level_Parallism = -nan
Bank_Level_Parallism_Col = -nan
Bank_Level_Parallism_Ready = -nan
write_to_read_ratio_blp_rw_average = -nan
GrpLevelPara = -nan 

BW Util details:
bwutil = 0.000000 
total_CMD = 262735 
util_bw = 0 
Wasted_Col = 0 
Wasted_Row = 0 
Idle = 262735 

BW Util Bottlenecks: 
RCDc_limit = 0 
RCDWRc_limit = 0 
WTRc_limit = 0 
RTWc_limit = 0 
CCDLc_limit = 0 
rwq = 0 
CCDLc_limit_alone = 0 
WTRc_limit_alone = 0 
RTWc_limit_alone = 0 

Commands details: 
total_CMD = 262735 
n_nop = 262735 
Read = 0 
Write = 0 
L2_Alloc = 0 
L2_WB = 0 
n_act = 0 
n_pre = 0 
n_ref = 0 
n_req = 0 
total_req = 0 

Dual Bus Interface Util: 
issued_total_row = 0 
issued_total_col = 0 
Row_Bus_Util =  0.000000 
CoL_Bus_Util = 0.000000 
Either_Row_CoL_Bus_Util = 0.000000 
Issued_on_Two_Bus_Simul_Util = 0.000000 
issued_two_Eff = -nan 
queue_avg = 0.000000 


dram_util_bins: 0 0 0 0 0 0 0 0 0 0
dram_eff_bins: 0 0 0 0 0 0 0 0 0 0
mrqq: max=0 avg=0
Memory Partition 2: 
Cache L2_bank_004:
MSHR contents

Cache L2_bank_005:
MSHR contents

In Dram Latency Queue (total = 0): 
DRAM[2]: 16 bks, busW=4 BL=8 CL=16, tRRD=8 tCCD=2, tRCD=16 tRAS=37 tRP=16 tRC=52
n_cmd=262735 n_nop=262726 n_act=1 n_pre=0 n_ref_event=0 n_req=8 n_rd=8 n_rd_L2_A=0 n_write=0 n_wr_bk=0 bw_util=6.09e-05
n_activity=78 dram_eff=0.2051
bk0: 8a 262702i bk1: 0a 262735i bk2: 0a 262735i bk3: 0a 262735i bk4: 0a 262735i bk5: 0a 262735i bk6: 0a 262735i bk7: 0a 262735i bk8: 0a 262735i bk9: 0a 262735i bk10: 0a 262735i bk11: 0a 262735i bk12: 0a 262735i bk13: 0a 262735i bk14: 0a 262735i bk15: 0a 262735i 

------------------------------------------------------------------------

Row_Buffer_Locality = 0.875000
Row_Buffer_Locality_read = 0.875000
Row_Buffer_Locality_write = -nan
Bank_Level_Parallism = 1.000000
Bank_Level_Parallism_Col = 1.000000
Bank_Level_Parallism_Ready = 1.000000
write_to_read_ratio_blp_rw_average = 0.000000
GrpLevelPara = 1.000000 

BW Util details:
bwutil = 0.000061 
total_CMD = 262735 
util_bw = 16 
Wasted_Col = 28 
Wasted_Row = 0 
Idle = 262691 

BW Util Bottlenecks: 
RCDc_limit = 16 
RCDWRc_limit = 0 
WTRc_limit = 0 
RTWc_limit = 0 
CCDLc_limit = 12 
rwq = 0 
CCDLc_limit_alone = 12 
WTRc_limit_alone = 0 
RTWc_limit_alone = 0 

Commands details: 
total_CMD = 262735 
n_nop = 262726 
Read = 8 
Write = 0 
L2_Alloc = 0 
L2_WB = 0 
n_act = 1 
n_pre = 0 
n_ref = 0 
n_req = 8 
total_req = 8 

Dual Bus Interface Util: 
issued_total_row = 1 
issued_total_col = 8 
Row_Bus_Util =  0.000004 
CoL_Bus_Util = 0.000030 
Either_Row_CoL_Bus_Util = 0.000034 
Issued_on_Two_Bus_Simul_Util = 0.000000 
issued_two_Eff = 0.000000 
queue_avg = 0.000217 


dram_util_bins: 0 0 0 0 0 0 0 0 0 0
dram_eff_bins: 0 0 0 0 0 0 0 0 0 0
mrqq: max=3 avg=0.000216949
Memory Partition 3: 
Cache L2_bank_006:
MSHR contents

Cache L2_bank_007:
MSHR contents

In Dram Latency Queue (total = 0): 
DRAM[3]: 16 bks, busW=4 BL=8 CL=16, tRRD=8 tCCD=2, tRCD=16 tRAS=37 tRP=16 tRC=52
n_cmd=262735 n_nop=262735 n_act=0 n_pre=0 n_ref_event=0 n_req=0 n_rd=0 n_rd_L2_A=0 n_write=0 n_wr_bk=0 bw_util=0
n_activity=0 dram_eff=-nan
bk0: 0a 262735i bk1: 0a 262735i bk2: 0a 262735i bk3: 0a 262735i bk4: 0a 262735i bk5: 0a 262735i bk6: 0a 262735i bk7: 0a 262735i bk8: 0a 262735i bk9: 0a 262735i bk10: 0a 262735i bk11: 0a 262735i bk12: 0a 262735i bk13: 0a 262735i bk14: 0a 262735i bk15: 0a 262735i 

------------------------------------------------------------------------

Row_Buffer_Locality = -nan
Row_Buffer_Locality_read = -nan
Row_Buffer_Locality_write = -nan
Bank_Level_Parallism = -nan
Bank_Level_Parallism_Col = -nan
Bank_Level_Parallism_Ready = -nan
write_to_read_ratio_blp_rw_average = -nan
GrpLevelPara = -nan 

BW Util details:
bwutil = 0.000000 
total_CMD = 262735 
util_bw = 0 
Wasted_Col = 0 
Wasted_Row = 0 
Idle = 262735 

BW Util Bottlenecks: 
RCDc_limit = 0 
RCDWRc_limit = 0 
WTRc_limit = 0 
RTWc_limit = 0 
CCDLc_limit = 0 
rwq = 0 
CCDLc_limit_alone = 0 
WTRc_limit_alone = 0 
RTWc_limit_alone = 0 

Commands details: 
total_CMD = 262735 
n_nop = 262735 
Read = 0 
Write = 0 
L2_Alloc = 0 
L2_WB = 0 
n_act = 0 
n_pre = 0 
n_ref = 0 
n_req = 0 
total_req = 0 

Dual Bus Interface Util: 
issued_total_row = 0 
issued_total_col = 0 
Row_Bus_Util =  0.000000 
CoL_Bus_Util = 0.000000 
Either_Row_CoL_Bus_Util = 0.000000 
Issued_on_Two_Bus_Simul_Util = 0.000000 
issued_two_Eff = -nan 
queue_avg = 0.000000 


dram_util_bins: 0 0 0 0 0 0 0 0 0 0
dram_eff_bins: 0 0 0 0 0 0 0 0 0 0
mrqq: max=0 avg=0
Memory Partition 4: 
Cache L2_bank_008:
MSHR contents

Cache L2_bank_009:
MSHR contents

In Dram Latency Queue (total = 0): 
DRAM[4]: 16 bks, busW=4 BL=8 CL=16, tRRD=8 tCCD=2, tRCD=16 tRAS=37 tRP=16 tRC=52
n_cmd=262735 n_nop=262735 n_act=0 n_pre=0 n_ref_event=0 n_req=0 n_rd=0 n_rd_L2_A=0 n_write=0 n_wr_bk=0 bw_util=0
n_activity=0 dram_eff=-nan
bk0: 0a 262735i bk1: 0a 262735i bk2: 0a 262735i bk3: 0a 262735i bk4: 0a 262735i bk5: 0a 262735i bk6: 0a 262735i bk7: 0a 262735i bk8: 0a 262735i bk9: 0a 262735i bk10: 0a 262735i bk11: 0a 262735i bk12: 0a 262735i bk13: 0a 262735i bk14: 0a 262735i bk15: 0a 262735i 

------------------------------------------------------------------------

Row_Buffer_Locality = -nan
Row_Buffer_Locality_read = -nan
Row_Buffer_Locality_write = -nan
Bank_Level_Parallism = -nan
Bank_Level_Parallism_Col = -nan
Bank_Level_Parallism_Ready = -nan
write_to_read_ratio_blp_rw_average = -nan
GrpLevelPara = -nan 

BW Util details:
bwutil = 0.000000 
total_CMD = 262735 
util_bw = 0 
Wasted_Col = 0 
Wasted_Row = 0 
Idle = 262735 

BW Util Bottlenecks: 
RCDc_limit = 0 
RCDWRc_limit = 0 
WTRc_limit = 0 
RTWc_limit = 0 
CCDLc_limit = 0 
rwq = 0 
CCDLc_limit_alone = 0 
WTRc_limit_alone = 0 
RTWc_limit_alone = 0 

Commands details: 
total_CMD = 262735 
n_nop = 262735 
Read = 0 
Write = 0 
L2_Alloc = 0 
L2_WB = 0 
n_act = 0 
n_pre = 0 
n_ref = 0 
n_req = 0 
total_req = 0 

Dual Bus Interface Util: 
issued_total_row = 0 
issued_total_col = 0 
Row_Bus_Util =  0.000000 
CoL_Bus_Util = 0.000000 
Either_Row_CoL_Bus_Util = 0.000000 
Issued_on_Two_Bus_Simul_Util = 0.000000 
issued_two_Eff = -nan 
queue_avg = 0.000000 


dram_util_bins: 0 0 0 0 0 0 0 0 0 0
dram_eff_bins: 0 0 0 0 0 0 0 0 0 0
mrqq: max=0 avg=0
Memory Partition 5: 
Cache L2_bank_010:
MSHR contents

Cache L2_bank_011:
MSHR contents

In Dram Latency Queue (total = 0): 
DRAM[5]: 16 bks, busW=4 BL=8 CL=16, tRRD=8 tCCD=2, tRCD=16 tRAS=37 tRP=16 tRC=52
n_cmd=262735 n_nop=262730 n_act=1 n_pre=0 n_ref_event=0 n_req=4 n_rd=4 n_rd_L2_A=0 n_write=0 n_wr_bk=0 bw_util=3.045e-05
n_activity=52 dram_eff=0.1538
bk0: 0a 262735i bk1: 4a 262710i bk2: 0a 262734i bk3: 0a 262735i bk4: 0a 262735i bk5: 0a 262735i bk6: 0a 262735i bk7: 0a 262735i bk8: 0a 262735i bk9: 0a 262735i bk10: 0a 262735i bk11: 0a 262735i bk12: 0a 262735i bk13: 0a 262735i bk14: 0a 262735i bk15: 0a 262735i 

------------------------------------------------------------------------

Row_Buffer_Locality = 0.750000
Row_Buffer_Locality_read = 0.750000
Row_Buffer_Locality_write = -nan
Bank_Level_Parallism = 1.000000
Bank_Level_Parallism_Col = 1.000000
Bank_Level_Parallism_Ready = 1.000000
write_to_read_ratio_blp_rw_average = 0.000000
GrpLevelPara = 1.000000 

BW Util details:
bwutil = 0.000030 
total_CMD = 262735 
util_bw = 8 
Wasted_Col = 22 
Wasted_Row = 0 
Idle = 262705 

BW Util Bottlenecks: 
RCDc_limit = 16 
RCDWRc_limit = 0 
WTRc_limit = 0 
RTWc_limit = 0 
CCDLc_limit = 6 
rwq = 0 
CCDLc_limit_alone = 6 
WTRc_limit_alone = 0 
RTWc_limit_alone = 0 

Commands details: 
total_CMD = 262735 
n_nop = 262730 
Read = 4 
Write = 0 
L2_Alloc = 0 
L2_WB = 0 
n_act = 1 
n_pre = 0 
n_ref = 0 
n_req = 4 
total_req = 4 

Dual Bus Interface Util: 
issued_total_row = 1 
issued_total_col = 4 
Row_Bus_Util =  0.000004 
CoL_Bus_Util = 0.000015 
Either_Row_CoL_Bus_Util = 0.000019 
Issued_on_Two_Bus_Simul_Util = 0.000000 
issued_two_Eff = 0.000000 
queue_avg = 0.000198 


dram_util_bins: 0 0 0 0 0 0 0 0 0 0
dram_eff_bins: 0 0 0 0 0 0 0 0 0 0
mrqq: max=3 avg=0.000197918
Memory Partition 6: 
Cache L2_bank_012:
MSHR contents

Cache L2_bank_013:
MSHR contents

In Dram Latency Queue (total = 0): 
DRAM[6]: 16 bks, busW=4 BL=8 CL=16, tRRD=8 tCCD=2, tRCD=16 tRAS=37 tRP=16 tRC=52
n_cmd=262735 n_nop=262735 n_act=0 n_pre=0 n_ref_event=0 n_req=0 n_rd=0 n_rd_L2_A=0 n_write=0 n_wr_bk=0 bw_util=0
n_activity=0 dram_eff=-nan
bk0: 0a 262735i bk1: 0a 262735i bk2: 0a 262735i bk3: 0a 262735i bk4: 0a 262735i bk5: 0a 262735i bk6: 0a 262735i bk7: 0a 262735i bk8: 0a 262735i bk9: 0a 262735i bk10: 0a 262735i bk11: 0a 262735i bk12: 0a 262735i bk13: 0a 262735i bk14: 0a 262735i bk15: 0a 262735i 

------------------------------------------------------------------------

Row_Buffer_Locality = -nan
Row_Buffer_Locality_read = -nan
Row_Buffer_Locality_write = -nan
Bank_Level_Parallism = -nan
Bank_Level_Parallism_Col = -nan
Bank_Level_Parallism_Ready = -nan
write_to_read_ratio_blp_rw_average = -nan
GrpLevelPara = -nan 

BW Util details:
bwutil = 0.000000 
total_CMD = 262735 
util_bw = 0 
Wasted_Col = 0 
Wasted_Row = 0 
Idle = 262735 

BW Util Bottlenecks: 
RCDc_limit = 0 
RCDWRc_limit = 0 
WTRc_limit = 0 
RTWc_limit = 0 
CCDLc_limit = 0 
rwq = 0 
CCDLc_limit_alone = 0 
WTRc_limit_alone = 0 
RTWc_limit_alone = 0 

Commands details: 
total_CMD = 262735 
n_nop = 262735 
Read = 0 
Write = 0 
L2_Alloc = 0 
L2_WB = 0 
n_act = 0 
n_pre = 0 
n_ref = 0 
n_req = 0 
total_req = 0 

Dual Bus Interface Util: 
issued_total_row = 0 
issued_total_col = 0 
Row_Bus_Util =  0.000000 
CoL_Bus_Util = 0.000000 
Either_Row_CoL_Bus_Util = 0.000000 
Issued_on_Two_Bus_Simul_Util = 0.000000 
issued_two_Eff = -nan 
queue_avg = 0.000000 


dram_util_bins: 0 0 0 0 0 0 0 0 0 0
dram_eff_bins: 0 0 0 0 0 0 0 0 0 0
mrqq: max=0 avg=0
Memory Partition 7: 
Cache L2_bank_014:
MSHR contents

Cache L2_bank_015:
MSHR contents

In Dram Latency Queue (total = 0): 
DRAM[7]: 16 bks, busW=4 BL=8 CL=16, tRRD=8 tCCD=2, tRCD=16 tRAS=37 tRP=16 tRC=52
n_cmd=262735 n_nop=262735 n_act=0 n_pre=0 n_ref_event=0 n_req=0 n_rd=0 n_rd_L2_A=0 n_write=0 n_wr_bk=0 bw_util=0
n_activity=0 dram_eff=-nan
bk0: 0a 262735i bk1: 0a 262735i bk2: 0a 262735i bk3: 0a 262735i bk4: 0a 262735i bk5: 0a 262735i bk6: 0a 262735i bk7: 0a 262735i bk8: 0a 262735i bk9: 0a 262735i bk10: 0a 262735i bk11: 0a 262735i bk12: 0a 262735i bk13: 0a 262735i bk14: 0a 262735i bk15: 0a 262735i 

------------------------------------------------------------------------

Row_Buffer_Locality = -nan
Row_Buffer_Locality_read = -nan
Row_Buffer_Locality_write = -nan
Bank_Level_Parallism = -nan
Bank_Level_Parallism_Col = -nan
Bank_Level_Parallism_Ready = -nan
write_to_read_ratio_blp_rw_average = -nan
GrpLevelPara = -nan 

BW Util details:
bwutil = 0.000000 
total_CMD = 262735 
util_bw = 0 
Wasted_Col = 0 
Wasted_Row = 0 
Idle = 262735 

BW Util Bottlenecks: 
RCDc_limit = 0 
RCDWRc_limit = 0 
WTRc_limit = 0 
RTWc_limit = 0 
CCDLc_limit = 0 
rwq = 0 
CCDLc_limit_alone = 0 
WTRc_limit_alone = 0 
RTWc_limit_alone = 0 

Commands details: 
total_CMD = 262735 
n_nop = 262735 
Read = 0 
Write = 0 
L2_Alloc = 0 
L2_WB = 0 
n_act = 0 
n_pre = 0 
n_ref = 0 
n_req = 0 
total_req = 0 

Dual Bus Interface Util: 
issued_total_row = 0 
issued_total_col = 0 
Row_Bus_Util =  0.000000 
CoL_Bus_Util = 0.000000 
Either_Row_CoL_Bus_Util = 0.000000 
Issued_on_Two_Bus_Simul_Util = 0.000000 
issued_two_Eff = -nan 
queue_avg = 0.000000 


dram_util_bins: 0 0 0 0 0 0 0 0 0 0
dram_eff_bins: 0 0 0 0 0 0 0 0 0 0
mrqq: max=0 avg=0
Memory Partition 8: 
Cache L2_bank_016:
MSHR contents

Cache L2_bank_017:
MSHR contents

In Dram Latency Queue (total = 0): 
DRAM[8]: 16 bks, busW=4 BL=8 CL=16, tRRD=8 tCCD=2, tRCD=16 tRAS=37 tRP=16 tRC=52
n_cmd=262735 n_nop=262735 n_act=0 n_pre=0 n_ref_event=0 n_req=0 n_rd=0 n_rd_L2_A=0 n_write=0 n_wr_bk=0 bw_util=0
n_activity=0 dram_eff=-nan
bk0: 0a 262735i bk1: 0a 262735i bk2: 0a 262735i bk3: 0a 262735i bk4: 0a 262735i bk5: 0a 262735i bk6: 0a 262735i bk7: 0a 262735i bk8: 0a 262735i bk9: 0a 262735i bk10: 0a 262735i bk11: 0a 262735i bk12: 0a 262735i bk13: 0a 262735i bk14: 0a 262735i bk15: 0a 262735i 

------------------------------------------------------------------------

Row_Buffer_Locality = -nan
Row_Buffer_Locality_read = -nan
Row_Buffer_Locality_write = -nan
Bank_Level_Parallism = -nan
Bank_Level_Parallism_Col = -nan
Bank_Level_Parallism_Ready = -nan
write_to_read_ratio_blp_rw_average = -nan
GrpLevelPara = -nan 

BW Util details:
bwutil = 0.000000 
total_CMD = 262735 
util_bw = 0 
Wasted_Col = 0 
Wasted_Row = 0 
Idle = 262735 

BW Util Bottlenecks: 
RCDc_limit = 0 
RCDWRc_limit = 0 
WTRc_limit = 0 
RTWc_limit = 0 
CCDLc_limit = 0 
rwq = 0 
CCDLc_limit_alone = 0 
WTRc_limit_alone = 0 
RTWc_limit_alone = 0 

Commands details: 
total_CMD = 262735 
n_nop = 262735 
Read = 0 
Write = 0 
L2_Alloc = 0 
L2_WB = 0 
n_act = 0 
n_pre = 0 
n_ref = 0 
n_req = 0 
total_req = 0 

Dual Bus Interface Util: 
issued_total_row = 0 
issued_total_col = 0 
Row_Bus_Util =  0.000000 
CoL_Bus_Util = 0.000000 
Either_Row_CoL_Bus_Util = 0.000000 
Issued_on_Two_Bus_Simul_Util = 0.000000 
issued_two_Eff = -nan 
queue_avg = 0.000000 


dram_util_bins: 0 0 0 0 0 0 0 0 0 0
dram_eff_bins: 0 0 0 0 0 0 0 0 0 0
mrqq: max=0 avg=0
Memory Partition 9: 
Cache L2_bank_018:
MSHR contents

Cache L2_bank_019:
MSHR contents

In Dram Latency Queue (total = 0): 
DRAM[9]: 16 bks, busW=4 BL=8 CL=16, tRRD=8 tCCD=2, tRCD=16 tRAS=37 tRP=16 tRC=52
n_cmd=262735 n_nop=262735 n_act=0 n_pre=0 n_ref_event=0 n_req=0 n_rd=0 n_rd_L2_A=0 n_write=0 n_wr_bk=0 bw_util=0
n_activity=0 dram_eff=-nan
bk0: 0a 262735i bk1: 0a 262735i bk2: 0a 262735i bk3: 0a 262735i bk4: 0a 262735i bk5: 0a 262735i bk6: 0a 262735i bk7: 0a 262735i bk8: 0a 262735i bk9: 0a 262735i bk10: 0a 262735i bk11: 0a 262735i bk12: 0a 262735i bk13: 0a 262735i bk14: 0a 262735i bk15: 0a 262735i 

------------------------------------------------------------------------

Row_Buffer_Locality = -nan
Row_Buffer_Locality_read = -nan
Row_Buffer_Locality_write = -nan
Bank_Level_Parallism = -nan
Bank_Level_Parallism_Col = -nan
Bank_Level_Parallism_Ready = -nan
write_to_read_ratio_blp_rw_average = -nan
GrpLevelPara = -nan 

BW Util details:
bwutil = 0.000000 
total_CMD = 262735 
util_bw = 0 
Wasted_Col = 0 
Wasted_Row = 0 
Idle = 262735 

BW Util Bottlenecks: 
RCDc_limit = 0 
RCDWRc_limit = 0 
WTRc_limit = 0 
RTWc_limit = 0 
CCDLc_limit = 0 
rwq = 0 
CCDLc_limit_alone = 0 
WTRc_limit_alone = 0 
RTWc_limit_alone = 0 

Commands details: 
total_CMD = 262735 
n_nop = 262735 
Read = 0 
Write = 0 
L2_Alloc = 0 
L2_WB = 0 
n_act = 0 
n_pre = 0 
n_ref = 0 
n_req = 0 
total_req = 0 

Dual Bus Interface Util: 
issued_total_row = 0 
issued_total_col = 0 
Row_Bus_Util =  0.000000 
CoL_Bus_Util = 0.000000 
Either_Row_CoL_Bus_Util = 0.000000 
Issued_on_Two_Bus_Simul_Util = 0.000000 
issued_two_Eff = -nan 
queue_avg = 0.000000 


dram_util_bins: 0 0 0 0 0 0 0 0 0 0
dram_eff_bins: 0 0 0 0 0 0 0 0 0 0
mrqq: max=0 avg=0
Memory Partition 10: 
Cache L2_bank_020:
MSHR contents

Cache L2_bank_021:
MSHR contents

In Dram Latency Queue (total = 0): 
DRAM[10]: 16 bks, busW=4 BL=8 CL=16, tRRD=8 tCCD=2, tRCD=16 tRAS=37 tRP=16 tRC=52
n_cmd=262735 n_nop=262735 n_act=0 n_pre=0 n_ref_event=0 n_req=0 n_rd=0 n_rd_L2_A=0 n_write=0 n_wr_bk=0 bw_util=0
n_activity=0 dram_eff=-nan
bk0: 0a 262735i bk1: 0a 262735i bk2: 0a 262735i bk3: 0a 262735i bk4: 0a 262735i bk5: 0a 262735i bk6: 0a 262735i bk7: 0a 262735i bk8: 0a 262735i bk9: 0a 262735i bk10: 0a 262735i bk11: 0a 262735i bk12: 0a 262735i bk13: 0a 262735i bk14: 0a 262735i bk15: 0a 262735i 

------------------------------------------------------------------------

Row_Buffer_Locality = -nan
Row_Buffer_Locality_read = -nan
Row_Buffer_Locality_write = -nan
Bank_Level_Parallism = -nan
Bank_Level_Parallism_Col = -nan
Bank_Level_Parallism_Ready = -nan
write_to_read_ratio_blp_rw_average = -nan
GrpLevelPara = -nan 

BW Util details:
bwutil = 0.000000 
total_CMD = 262735 
util_bw = 0 
Wasted_Col = 0 
Wasted_Row = 0 
Idle = 262735 

BW Util Bottlenecks: 
RCDc_limit = 0 
RCDWRc_limit = 0 
WTRc_limit = 0 
RTWc_limit = 0 
CCDLc_limit = 0 
rwq = 0 
CCDLc_limit_alone = 0 
WTRc_limit_alone = 0 
RTWc_limit_alone = 0 

Commands details: 
total_CMD = 262735 
n_nop = 262735 
Read = 0 
Write = 0 
L2_Alloc = 0 
L2_WB = 0 
n_act = 0 
n_pre = 0 
n_ref = 0 
n_req = 0 
total_req = 0 

Dual Bus Interface Util: 
issued_total_row = 0 
issued_total_col = 0 
Row_Bus_Util =  0.000000 
CoL_Bus_Util = 0.000000 
Either_Row_CoL_Bus_Util = 0.000000 
Issued_on_Two_Bus_Simul_Util = 0.000000 
issued_two_Eff = -nan 
queue_avg = 0.000000 


dram_util_bins: 0 0 0 0 0 0 0 0 0 0
dram_eff_bins: 0 0 0 0 0 0 0 0 0 0
mrqq: max=0 avg=0
Memory Partition 11: 
Cache L2_bank_022:
MSHR contents

Cache L2_bank_023:
[...]
WTRc_limit_alone = 0 
RTWc_limit_alone = 0 

Commands details: 
total_CMD = 2449667 
n_nop = 2449662 
Read = 4 
Write = 0 
L2_Alloc = 0 
L2_WB = 0 
n_act = 1 
n_pre = 0 
n_ref = 0 
n_req = 4 
total_req = 4 

Dual Bus Interface Util: 
issued_total_row = 1 
issued_total_col = 4 
Row_Bus_Util =  0.000000 
CoL_Bus_Util = 0.000002 
Either_Row_CoL_Bus_Util = 0.000002 
Issued_on_Two_Bus_Simul_Util = 0.000000 
issued_two_Eff = 0.000000 
queue_avg = 0.000021 


dram_util_bins: 0 0 0 0 0 0 0 0 0 0
dram_eff_bins: 0 0 0 0 0 0 0 0 0 0
mrqq: max=3 avg=2.12274e-05
Memory Partition 6: 
Cache L2_bank_012:
MSHR contents

Cache L2_bank_013:
MSHR contents

In Dram Latency Queue (total = 0): 
DRAM[6]: 16 bks, busW=4 BL=8 CL=16, tRRD=8 tCCD=2, tRCD=16 tRAS=37 tRP=16 tRC=52
n_cmd=2449667 n_nop=2449667 n_act=0 n_pre=0 n_ref_event=0 n_req=0 n_rd=0 n_rd_L2_A=0 n_write=0 n_wr_bk=0 bw_util=0
n_activity=0 dram_eff=-nan
bk0: 0a 2449667i bk1: 0a 2449667i bk2: 0a 2449667i bk3: 0a 2449667i bk4: 0a 2449667i bk5: 0a 2449667i bk6: 0a 2449667i bk7: 0a 2449667i bk8: 0a 2449667i bk9: 0a 2449667i bk10: 0a 2449667i bk11: 0a 2449667i bk12: 0a 2449667i bk13: 0a 2449667i bk14: 0a 2449667i bk15: 0a 2449667i 

------------------------------------------------------------------------

Row_Buffer_Locality = -nan
Row_Buffer_Locality_read = -nan
Row_Buffer_Locality_write = -nan
Bank_Level_Parallism = -nan
Bank_Level_Parallism_Col = -nan
Bank_Level_Parallism_Ready = -nan
write_to_read_ratio_blp_rw_average = -nan
GrpLevelPara = -nan 

BW Util details:
bwutil = 0.000000 
total_CMD = 2449667 
util_bw = 0 
Wasted_Col = 0 
Wasted_Row = 0 
Idle = 2449667 

BW Util Bottlenecks: 
RCDc_limit = 0 
RCDWRc_limit = 0 
WTRc_limit = 0 
RTWc_limit = 0 
CCDLc_limit = 0 
rwq = 0 
CCDLc_limit_alone = 0 
WTRc_limit_alone = 0 
RTWc_limit_alone = 0 

Commands details: 
total_CMD = 2449667 
n_nop = 2449667 
Read = 0 
Write = 0 
L2_Alloc = 0 
L2_WB = 0 
n_act = 0 
n_pre = 0 
n_ref = 0 
n_req = 0 
total_req = 0 

Dual Bus Interface Util: 
issued_total_row = 0 
issued_total_col = 0 
Row_Bus_Util =  0.000000 
CoL_Bus_Util = 0.000000 
Either_Row_CoL_Bus_Util = 0.000000 
Issued_on_Two_Bus_Simul_Util = 0.000000 
issued_two_Eff = -nan 
queue_avg = 0.000000 


dram_util_bins: 0 0 0 0 0 0 0 0 0 0
dram_eff_bins: 0 0 0 0 0 0 0 0 0 0
mrqq: max=0 avg=0
Memory Partition 7: 
Cache L2_bank_014:
MSHR contents

Cache L2_bank_015:
MSHR contents

In Dram Latency Queue (total = 0): 
DRAM[7]: 16 bks, busW=4 BL=8 CL=16, tRRD=8 tCCD=2, tRCD=16 tRAS=37 tRP=16 tRC=52
n_cmd=2449667 n_nop=2449667 n_act=0 n_pre=0 n_ref_event=0 n_req=0 n_rd=0 n_rd_L2_A=0 n_write=0 n_wr_bk=0 bw_util=0
n_activity=0 dram_eff=-nan
bk0: 0a 2449667i bk1: 0a 2449667i bk2: 0a 2449667i bk3: 0a 2449667i bk4: 0a 2449667i bk5: 0a 2449667i bk6: 0a 2449667i bk7: 0a 2449667i bk8: 0a 2449667i bk9: 0a 2449667i bk10: 0a 2449667i bk11: 0a 2449667i bk12: 0a 2449667i bk13: 0a 2449667i bk14: 0a 2449667i bk15: 0a 2449667i 

------------------------------------------------------------------------

Row_Buffer_Locality = -nan
Row_Buffer_Locality_read = -nan
Row_Buffer_Locality_write = -nan
Bank_Level_Parallism = -nan
Bank_Level_Parallism_Col = -nan
Bank_Level_Parallism_Ready = -nan
write_to_read_ratio_blp_rw_average = -nan
GrpLevelPara = -nan 

BW Util details:
bwutil = 0.000000 
total_CMD = 2449667 
util_bw = 0 
Wasted_Col = 0 
Wasted_Row = 0 
Idle = 2449667 

BW Util Bottlenecks: 
RCDc_limit = 0 
RCDWRc_limit = 0 
WTRc_limit = 0 
RTWc_limit = 0 
CCDLc_limit = 0 
rwq = 0 
CCDLc_limit_alone = 0 
WTRc_limit_alone = 0 
RTWc_limit_alone = 0 

Commands details: 
total_CMD = 2449667 
n_nop = 2449667 
Read = 0 
Write = 0 
L2_Alloc = 0 
L2_WB = 0 
n_act = 0 
n_pre = 0 
n_ref = 0 
n_req = 0 
total_req = 0 

Dual Bus Interface Util: 
issued_total_row = 0 
issued_total_col = 0 
Row_Bus_Util =  0.000000 
CoL_Bus_Util = 0.000000 
Either_Row_CoL_Bus_Util = 0.000000 
Issued_on_Two_Bus_Simul_Util = 0.000000 
issued_two_Eff = -nan 
queue_avg = 0.000000 


dram_util_bins: 0 0 0 0 0 0 0 0 0 0
dram_eff_bins: 0 0 0 0 0 0 0 0 0 0
mrqq: max=0 avg=0
Memory Partition 8: 
Cache L2_bank_016:
MSHR contents

Cache L2_bank_017:
MSHR contents

In Dram Latency Queue (total = 0): 
DRAM[8]: 16 bks, busW=4 BL=8 CL=16, tRRD=8 tCCD=2, tRCD=16 tRAS=37 tRP=16 tRC=52
n_cmd=2449667 n_nop=2449667 n_act=0 n_pre=0 n_ref_event=0 n_req=0 n_rd=0 n_rd_L2_A=0 n_write=0 n_wr_bk=0 bw_util=0
n_activity=0 dram_eff=-nan
bk0: 0a 2449667i bk1: 0a 2449667i bk2: 0a 2449667i bk3: 0a 2449667i bk4: 0a 2449667i bk5: 0a 2449667i bk6: 0a 2449667i bk7: 0a 2449667i bk8: 0a 2449667i bk9: 0a 2449667i bk10: 0a 2449667i bk11: 0a 2449667i bk12: 0a 2449667i bk13: 0a 2449667i bk14: 0a 2449667i bk15: 0a 2449667i 

------------------------------------------------------------------------

Row_Buffer_Locality = -nan
Row_Buffer_Locality_read = -nan
Row_Buffer_Locality_write = -nan
Bank_Level_Parallism = -nan
Bank_Level_Parallism_Col = -nan
Bank_Level_Parallism_Ready = -nan
write_to_read_ratio_blp_rw_average = -nan
GrpLevelPara = -nan 

BW Util details:
bwutil = 0.000000 
total_CMD = 2449667 
util_bw = 0 
Wasted_Col = 0 
Wasted_Row = 0 
Idle = 2449667 

BW Util Bottlenecks: 
RCDc_limit = 0 
RCDWRc_limit = 0 
WTRc_limit = 0 
RTWc_limit = 0 
CCDLc_limit = 0 
rwq = 0 
CCDLc_limit_alone = 0 
WTRc_limit_alone = 0 
RTWc_limit_alone = 0 

Commands details: 
total_CMD = 2449667 
n_nop = 2449667 
Read = 0 
Write = 0 
L2_Alloc = 0 
L2_WB = 0 
n_act = 0 
n_pre = 0 
n_ref = 0 
n_req = 0 
total_req = 0 

Dual Bus Interface Util: 
issued_total_row = 0 
issued_total_col = 0 
Row_Bus_Util =  0.000000 
CoL_Bus_Util = 0.000000 
Either_Row_CoL_Bus_Util = 0.000000 
Issued_on_Two_Bus_Simul_Util = 0.000000 
issued_two_Eff = -nan 
queue_avg = 0.000000 


dram_util_bins: 0 0 0 0 0 0 0 0 0 0
dram_eff_bins: 0 0 0 0 0 0 0 0 0 0
mrqq: max=0 avg=0
Memory Partition 9: 
Cache L2_bank_018:
MSHR contents

Cache L2_bank_019:
MSHR contents

In Dram Latency Queue (total = 0): 
DRAM[9]: 16 bks, busW=4 BL=8 CL=16, tRRD=8 tCCD=2, tRCD=16 tRAS=37 tRP=16 tRC=52
n_cmd=2449667 n_nop=2449667 n_act=0 n_pre=0 n_ref_event=0 n_req=0 n_rd=0 n_rd_L2_A=0 n_write=0 n_wr_bk=0 bw_util=0
n_activity=0 dram_eff=-nan
bk0: 0a 2449667i bk1: 0a 2449667i bk2: 0a 2449667i bk3: 0a 2449667i bk4: 0a 2449667i bk5: 0a 2449667i bk6: 0a 2449667i bk7: 0a 2449667i bk8: 0a 2449667i bk9: 0a 2449667i bk10: 0a 2449667i bk11: 0a 2449667i bk12: 0a 2449667i bk13: 0a 2449667i bk14: 0a 2449667i bk15: 0a 2449667i 

------------------------------------------------------------------------

Row_Buffer_Locality = -nan
Row_Buffer_Locality_read = -nan
Row_Buffer_Locality_write = -nan
Bank_Level_Parallism = -nan
Bank_Level_Parallism_Col = -nan
Bank_Level_Parallism_Ready = -nan
write_to_read_ratio_blp_rw_average = -nan
GrpLevelPara = -nan 

BW Util details:
bwutil = 0.000000 
total_CMD = 2449667 
util_bw = 0 
Wasted_Col = 0 
Wasted_Row = 0 
Idle = 2449667 

BW Util Bottlenecks: 
RCDc_limit = 0 
RCDWRc_limit = 0 
WTRc_limit = 0 
RTWc_limit = 0 
CCDLc_limit = 0 
rwq = 0 
CCDLc_limit_alone = 0 
WTRc_limit_alone = 0 
RTWc_limit_alone = 0 

Commands details: 
total_CMD = 2449667 
n_nop = 2449667 
Read = 0 
Write = 0 
L2_Alloc = 0 
L2_WB = 0 
n_act = 0 
n_pre = 0 
n_ref = 0 
n_req = 0 
total_req = 0 

Dual Bus Interface Util: 
issued_total_row = 0 
issued_total_col = 0 
Row_Bus_Util =  0.000000 
CoL_Bus_Util = 0.000000 
Either_Row_CoL_Bus_Util = 0.000000 
Issued_on_Two_Bus_Simul_Util = 0.000000 
issued_two_Eff = -nan 
queue_avg = 0.000000 


dram_util_bins: 0 0 0 0 0 0 0 0 0 0
dram_eff_bins: 0 0 0 0 0 0 0 0 0 0
mrqq: max=0 avg=0
Memory Partition 10: 
Cache L2_bank_020:
MSHR contents

Cache L2_bank_021:
MSHR contents

In Dram Latency Queue (total = 0): 
DRAM[10]: 16 bks, busW=4 BL=8 CL=16, tRRD=8 tCCD=2, tRCD=16 tRAS=37 tRP=16 tRC=52
n_cmd=2449667 n_nop=2449667 n_act=0 n_pre=0 n_ref_event=0 n_req=0 n_rd=0 n_rd_L2_A=0 n_write=0 n_wr_bk=0 bw_util=0
n_activity=0 dram_eff=-nan
bk0: 0a 2449667i bk1: 0a 2449667i bk2: 0a 2449667i bk3: 0a 2449667i bk4: 0a 2449667i bk5: 0a 2449667i bk6: 0a 2449667i bk7: 0a 2449667i bk8: 0a 2449667i bk9: 0a 2449667i bk10: 0a 2449667i bk11: 0a 2449667i bk12: 0a 2449667i bk13: 0a 2449667i bk14: 0a 2449667i bk15: 0a 2449667i 

------------------------------------------------------------------------

Row_Buffer_Locality = -nan
Row_Buffer_Locality_read = -nan
Row_Buffer_Locality_write = -nan
Bank_Level_Parallism = -nan
Bank_Level_Parallism_Col = -nan
Bank_Level_Parallism_Ready = -nan
write_to_read_ratio_blp_rw_average = -nan
GrpLevelPara = -nan 

BW Util details:
bwutil = 0.000000 
total_CMD = 2449667 
util_bw = 0 
Wasted_Col = 0 
Wasted_Row = 0 
Idle = 2449667 

BW Util Bottlenecks: 
RCDc_limit = 0 
RCDWRc_limit = 0 
WTRc_limit = 0 
RTWc_limit = 0 
CCDLc_limit = 0 
rwq = 0 
CCDLc_limit_alone = 0 
WTRc_limit_alone = 0 
RTWc_limit_alone = 0 

Commands details: 
total_CMD = 2449667 
n_nop = 2449667 
Read = 0 
Write = 0 
L2_Alloc = 0 
L2_WB = 0 
n_act = 0 
n_pre = 0 
n_ref = 0 
n_req = 0 
total_req = 0 

Dual Bus Interface Util: 
issued_total_row = 0 
issued_total_col = 0 
Row_Bus_Util =  0.000000 
CoL_Bus_Util = 0.000000 
Either_Row_CoL_Bus_Util = 0.000000 
Issued_on_Two_Bus_Simul_Util = 0.000000 
issued_two_Eff = -nan 
queue_avg = 0.000000 


dram_util_bins: 0 0 0 0 0 0 0 0 0 0
dram_eff_bins: 0 0 0 0 0 0 0 0 0 0
mrqq: max=0 avg=0
Memory Partition 11: 
Cache L2_bank_022:
MSHR contents

Cache L2_bank_023:
MSHR contents

In Dram Latency Queue (total = 0): 
DRAM[11]: 16 bks, busW=4 BL=8 CL=16, tRRD=8 tCCD=2, tRCD=16 tRAS=37 tRP=16 tRC=52
n_cmd=2449667 n_nop=2449664 n_act=1 n_pre=0 n_ref_event=0 n_req=2 n_rd=2 n_rd_L2_A=0 n_write=0 n_wr_bk=0 bw_util=1.633e-06
n_activity=52 dram_eff=0.07692
bk0: 2a 2449648i bk1: 0a 2449667i bk2: 0a 2449667i bk3: 0a 2449667i bk4: 0a 2449667i bk5: 0a 2449667i bk6: 0a 2449667i bk7: 0a 2449667i bk8: 0a 2449667i bk9: 0a 2449667i bk10: 0a 2449667i bk11: 0a 2449667i bk12: 0a 2449667i bk13: 0a 2449667i bk14: 0a 2449667i bk15: 0a 2449667i 

------------------------------------------------------------------------

Row_Buffer_Locality = 1.000000
Row_Buffer_Locality_read = 1.000000
Row_Buffer_Locality_write = -nan
Bank_Level_Parallism = 1.000000
Bank_Level_Parallism_Col = 1.000000
Bank_Level_Parallism_Ready = 1.000000
write_to_read_ratio_blp_rw_average = 0.000000
GrpLevelPara = 1.000000 

BW Util details:
bwutil = 0.000002 
total_CMD = 2449667 
util_bw = 4 
Wasted_Col = 18 
Wasted_Row = 0 
Idle = 2449645 

BW Util Bottlenecks: 
RCDc_limit = 16 
RCDWRc_limit = 0 
WTRc_limit = 0 
RTWc_limit = 0 
CCDLc_limit = 2 
rwq = 0 
CCDLc_limit_alone = 2 
WTRc_limit_alone = 0 
RTWc_limit_alone = 0 

Commands details: 
total_CMD = 2449667 
n_nop = 2449664 
Read = 2 
Write = 0 
L2_Alloc = 0 
L2_WB = 0 
n_act = 1 
n_pre = 0 
n_ref = 0 
n_req = 2 
total_req = 2 

Dual Bus Interface Util: 
issued_total_row = 1 
issued_total_col = 2 
Row_Bus_Util =  0.000000 
CoL_Bus_Util = 0.000001 
Either_Row_CoL_Bus_Util = 0.000001 
Issued_on_Two_Bus_Simul_Util = 0.000000 
issued_two_Eff = 0.000000 
queue_avg = 0.000006 


dram_util_bins: 0 0 0 0 0 0 0 0 0 0
dram_eff_bins: 0 0 0 0 0 0 0 0 0 0
mrqq: max=1 avg=6.12328e-06

========= L2 cache stats =========
L2_cache_bank[0]: Access = 11592, Miss = 0, Miss_rate = 0.000, Pending_hits = 0, Reservation_fails = 0
L2_cache_bank[1]: Access = 461, Miss = 4, Miss_rate = 0.009, Pending_hits = 4, Reservation_fails = 0
L2_cache_bank[2]: Access = 7047, Miss = 0, Miss_rate = 0.000, Pending_hits = 0, Reservation_fails = 0
L2_cache_bank[3]: Access = 6774, Miss = 0, Miss_rate = 0.000, Pending_hits = 0, Reservation_fails = 0
L2_cache_bank[4]: Access = 10967, Miss = 8, Miss_rate = 0.001, Pending_hits = 32, Reservation_fails = 0
L2_cache_bank[5]: Access = 2921, Miss = 0, Miss_rate = 0.000, Pending_hits = 0, Reservation_fails = 0
L2_cache_bank[6]: Access = 5775, Miss = 0, Miss_rate = 0.000, Pending_hits = 0, Reservation_fails = 0
L2_cache_bank[7]: Access = 5318, Miss = 0, Miss_rate = 0.000, Pending_hits = 0, Reservation_fails = 0
L2_cache_bank[8]: Access = 8897, Miss = 0, Miss_rate = 0.000, Pending_hits = 0, Reservation_fails = 0
L2_cache_bank[9]: Access = 3882, Miss = 0, Miss_rate = 0.000, Pending_hits = 0, Reservation_fails = 0
L2_cache_bank[10]: Access = 5676, Miss = 0, Miss_rate = 0.000, Pending_hits = 0, Reservation_fails = 0
L2_cache_bank[11]: Access = 10654, Miss = 4, Miss_rate = 0.000, Pending_hits = 28, Reservation_fails = 0
L2_cache_bank[12]: Access = 9137, Miss = 0, Miss_rate = 0.000, Pending_hits = 0, Reservation_fails = 0
L2_cache_bank[13]: Access = 10355, Miss = 0, Miss_rate = 0.000, Pending_hits = 0, Reservation_fails = 0
L2_cache_bank[14]: Access = 8240, Miss = 0, Miss_rate = 0.000, Pending_hits = 0, Reservation_fails = 0
L2_cache_bank[15]: Access = 2843, Miss = 0, Miss_rate = 0.000, Pending_hits = 0, Reservation_fails = 0
L2_cache_bank[16]: Access = 4573, Miss = 0, Miss_rate = 0.000, Pending_hits = 0, Reservation_fails = 0
L2_cache_bank[17]: Access = 9145, Miss = 0, Miss_rate = 0.000, Pending_hits = 0, Reservation_fails = 0
L2_cache_bank[18]: Access = 18204, Miss = 0, Miss_rate = 0.000, Pending_hits = 0, Reservation_fails = 0
L2_cache_bank[19]: Access = 1454, Miss = 0, Miss_rate = 0.000, Pending_hits = 0, Reservation_fails = 0
L2_cache_bank[20]: Access = 20634, Miss = 0, Miss_rate = 0.000, Pending_hits = 0, Reservation_fails = 0
L2_cache_bank[21]: Access = 11353, Miss = 0, Miss_rate = 0.000, Pending_hits = 0, Reservation_fails = 0
L2_cache_bank[22]: Access = 8376, Miss = 2, Miss_rate = 0.000, Pending_hits = 14, Reservation_fails = 0
L2_cache_bank[23]: Access = 4038, Miss = 0, Miss_rate = 0.000, Pending_hits = 0, Reservation_fails = 0
L2_total_cache_accesses = 188316
L2_total_cache_misses = 18
L2_total_cache_miss_rate = 0.0001
L2_total_cache_pending_hits = 78
L2_total_cache_reservation_fails = 0
L2_total_cache_breakdown:
	L2_cache_stats_breakdown[GLOBAL_ACC_R][HIT] = 183312
	L2_cache_stats_breakdown[GLOBAL_ACC_R][HIT_RESERVED] = 0
	L2_cache_stats_breakdown[GLOBAL_ACC_R][MISS] = 0
	L2_cache_stats_breakdown[GLOBAL_ACC_R][RESERVATION_FAIL] = 0
	L2_cache_stats_breakdown[GLOBAL_ACC_R][SECTOR_MISS] = 0
	L2_cache_stats_breakdown[LOCAL_ACC_R][HIT] = 0
	L2_cache_stats_breakdown[LOCAL_ACC_R][HIT_RESERVED] = 0
	L2_cache_stats_breakdown[LOCAL_ACC_R][MISS] = 0
	L2_cache_stats_breakdown[LOCAL_ACC_R][RESERVATION_FAIL] = 0
	L2_cache_stats_breakdown[LOCAL_ACC_R][SECTOR_MISS] = 0
	L2_cache_stats_breakdown[CONST_ACC_R][HIT] = 40
	L2_cache_stats_breakdown[CONST_ACC_R][HIT_RESERVED] = 14
	L2_cache_stats_breakdown[CONST_ACC_R][MISS] = 1
	L2_cache_stats_breakdown[CONST_ACC_R][RESERVATION_FAIL] = 0
	L2_cache_stats_breakdown[CONST_ACC_R][SECTOR_MISS] = 1
	L2_cache_stats_breakdown[TEXTURE_ACC_R][HIT] = 0
	L2_cache_stats_breakdown[TEXTURE_ACC_R][HIT_RESERVED] = 0
	L2_cache_stats_breakdown[TEXTURE_ACC_R][MISS] = 0
	L2_cache_stats_breakdown[TEXTURE_ACC_R][RESERVATION_FAIL] = 0
	L2_cache_stats_breakdown[TEXTURE_ACC_R][SECTOR_MISS] = 0
	L2_cache_stats_breakdown[GLOBAL_ACC_W][HIT] = 4500
	L2_cache_stats_breakdown[GLOBAL_ACC_W][HIT_RESERVED] = 0
	L2_cache_stats_breakdown[GLOBAL_ACC_W][MISS] = 0
	L2_cache_stats_breakdown[GLOBAL_ACC_W][RESERVATION_FAIL] = 0
	L2_cache_stats_breakdown[GLOBAL_ACC_W][SECTOR_MISS] = 0
	L2_cache_stats_breakdown[LOCAL_ACC_W][HIT] = 0
	L2_cache_stats_breakdown[LOCAL_ACC_W][HIT_RESERVED] = 0
	L2_cache_stats_breakdown[LOCAL_ACC_W][MISS] = 0
	L2_cache_stats_breakdown[LOCAL_ACC_W][RESERVATION_FAIL] = 0
	L2_cache_stats_breakdown[LOCAL_ACC_W][SECTOR_MISS] = 0
	L2_cache_stats_breakdown[L1_WRBK_ACC][HIT] = 0
	L2_cache_stats_breakdown[L1_WRBK_ACC][HIT_RESERVED] = 0
	L2_cache_stats_breakdown[L1_WRBK_ACC][MISS] = 0
	L2_cache_stats_breakdown[L1_WRBK_ACC][RESERVATION_FAIL] = 0
	L2_cache_stats_breakdown[L1_WRBK_ACC][SECTOR_MISS] = 0
	L2_cache_stats_breakdown[L2_WRBK_ACC][HIT] = 0
	L2_cache_stats_breakdown[L2_WRBK_ACC][HIT_RESERVED] = 0
	L2_cache_stats_breakdown[L2_WRBK_ACC][MISS] = 0
	L2_cache_stats_breakdown[L2_WRBK_ACC][RESERVATION_FAIL] = 0
	L2_cache_stats_breakdown[L2_WRBK_ACC][SECTOR_MISS] = 0
	L2_cache_stats_breakdown[INST_ACC_R][HIT] = 368
	L2_cache_stats_breakdown[INST_ACC_R][HIT_RESERVED] = 64
	L2_cache_stats_breakdown[INST_ACC_R][MISS] = 4
	L2_cache_stats_breakdown[INST_ACC_R][RESERVATION_FAIL] = 0
	L2_cache_stats_breakdown[INST_ACC_R][SECTOR_MISS] = 12
	L2_cache_stats_breakdown[L1_WR_ALLOC_R][HIT] = 0
	L2_cache_stats_breakdown[L1_WR_ALLOC_R][HIT_RESERVED] = 0
	L2_cache_stats_breakdown[L1_WR_ALLOC_R][MISS] = 0
	L2_cache_stats_breakdown[L1_WR_ALLOC_R][RESERVATION_FAIL] = 0
	L2_cache_stats_breakdown[L1_WR_ALLOC_R][SECTOR_MISS] = 0
	L2_cache_stats_breakdown[L2_WR_ALLOC_R][HIT] = 0
	L2_cache_stats_breakdown[L2_WR_ALLOC_R][HIT_RESERVED] = 0
	L2_cache_stats_breakdown[L2_WR_ALLOC_R][MISS] = 0
	L2_cache_stats_breakdown[L2_WR_ALLOC_R][RESERVATION_FAIL] = 0
	L2_cache_stats_breakdown[L2_WR_ALLOC_R][SECTOR_MISS] = 0
	L2_cache_stats_breakdown[GLOBAL_ACC_R][TOTAL_ACCESS] = 183312
	L2_cache_stats_breakdown[CONST_ACC_R][TOTAL_ACCESS] = 56
	L2_cache_stats_breakdown[GLOBAL_ACC_W][TOTAL_ACCESS] = 4500
	L2_cache_stats_breakdown[INST_ACC_R][TOTAL_ACCESS] = 448
L2_total_cache_reservation_fail_breakdown:
L2_cache_data_port_util = 0.006
L2_cache_fill_port_util = 0.000

icnt_total_pkts_mem_to_simt=188316
icnt_total_pkts_simt_to_mem=187952
LD_mem_lat_dist  0 0 0 0 0 0 0 0 0 0 0 0 0 0 0 0 0 0 0 0 0 0 0 0 0 0 0
ST_mem_lat_dist  0 0 0 0 0 0 0 0 0 0 0 0 0 0 0 0 0 0 0 0 0 0 0 0 0 0 0
----------------------------Interconnect-DETAILS--------------------------------
Class 0:
Packet latency average = 5.02506
	minimum = 5
	maximum = 30
Network latency average = 5.02506
	minimum = 5
	maximum = 30
Slowest packet = 318521
Flit latency average = 5.02506
	minimum = 5
	maximum = 30
Slowest flit = 318521
Fragmentation average = 0
	minimum = 0
	maximum = 0
Injected packet rate average = 0.00626167
	minimum = 0 (at node 0)
	maximum = 0.0228488 (at node 14)
Accepted packet rate average = 0.00626167
	minimum = 0 (at node 0)
	maximum = 0.0228488 (at node 14)
Injected flit rate average = 0.00626167
	minimum = 0 (at node 0)
	maximum = 0.0228488 (at node 14)
Accepted flit rate average= 0.00626167
	minimum = 0 (at node 0)
	maximum = 0.0228488 (at node 14)
Injected packet length average = 1
Accepted packet length average = 1
Total in-flight flits = 0 (0 measured)
====== Overall Traffic Statistics ======
====== Traffic class 0 ======
Packet latency average = 5.03951 (9 samples)
	minimum = 5 (9 samples)
	maximum = 27.5556 (9 samples)
Network latency average = 5.03798 (9 samples)
	minimum = 5 (9 samples)
	maximum = 27.5556 (9 samples)
Flit latency average = 5.03798 (9 samples)
	minimum = 5 (9 samples)
	maximum = 27.5556 (9 samples)
Fragmentation average = 0 (9 samples)
	minimum = 0 (9 samples)
	maximum = 0 (9 samples)
Injected packet rate average = 0.00519451 (9 samples)
	minimum = 0 (9 samples)
	maximum = 0.0227728 (9 samples)
Accepted packet rate average = 0.00519451 (9 samples)
	minimum = 0 (9 samples)
	maximum = 0.0227999 (9 samples)
Injected flit rate average = 0.00519451 (9 samples)
	minimum = 0 (9 samples)
	maximum = 0.0227728 (9 samples)
Accepted flit rate average = 0.00519451 (9 samples)
	minimum = 0 (9 samples)
	maximum = 0.0227999 (9 samples)
Injected packet size average = 1 (9 samples)
Accepted packet size average = 1 (9 samples)
Hops average = 1 (9 samples)
----------------------------END-of-Interconnect-DETAILS-------------------------


gpgpu_simulation_time = 0 days, 0 hrs, 6 min, 15 sec (375 sec)
gpgpu_simulation_rate = 118145 (inst/sec)
gpgpu_simulation_rate = 3702 (cycle/sec)
gpgpu_silicon_slowdown = 382766x
GPGPU-Sim: synchronize waiting for inactive GPU simulation
GPGPU-Sim API: Stream Manager State
GPGPU-Sim: detected inactive GPU simulation thread
SENDING TO GPU TOOK: 0.005402
CUDA EXEC TOOK: 51.958668
SENDING BACK FROM GPU TOOK: 0.001376
TIME TO CALC NEW ARRAY X AND Y TOOK: 51.965454
TIME TO RESET WEIGHTS TOOK: 0.000009
PARTICLE FILTER TOOK 374.518738
ENTIRE PROGRAM TOOK 374.545898
GPGPU-Sim: *** exit detected ***
